500
new structure
O 1.961657 1.961250 5.872025
O 1.961657 1.961250 13.718833
O 1.961657 1.961250 21.565641
O 1.961657 1.961250 29.412449
O 1.961657 1.961250 37.259258
O 1.961657 1.961250 45.106068
O 1.961657 1.961250 52.952869
O 1.961657 1.961250 60.799686
O 1.961657 1.961250 68.646492
O 1.961657 1.961250 76.493294
O 1.961657 1.961250 84.340103
O 1.961657 1.961250 92.186913
O 1.961657 1.961250 100.033722
O 1.961657 1.961250 107.880531
O 1.961657 1.961250 115.727333
O 1.961657 1.961250 123.574150
O 1.961657 1.961250 131.420959
O 1.961657 1.961250 139.267761
O 1.961657 1.961250 147.114578
O 1.961657 1.961250 154.961365
O 1.961657 1.961250 162.808182
O 1.961657 1.961250 170.654999
O 1.961657 1.961250 178.501801
O 1.961657 1.961250 186.348602
O 1.961657 1.961250 194.195419
O 1.961657 5.883750 1.948622
O 1.961657 5.883750 9.795429
O 1.961657 5.883750 17.642237
O 1.961657 5.883750 25.489044
O 1.961657 5.883750 33.335854
O 1.961657 5.883750 41.182659
O 1.961657 5.883750 49.029469
O 1.961657 5.883750 56.876278
O 1.961657 5.883750 64.723083
O 1.961657 5.883750 72.569901
O 1.961657 5.883750 80.416702
O 1.961657 5.883750 88.263512
O 1.961657 5.883750 96.110313
O 1.961657 5.883750 103.957123
O 1.961657 5.883750 111.803932
O 1.961657 5.883750 119.650749
O 1.961657 5.883750 127.497543
O 1.961657 5.883750 135.344360
O 1.961657 5.883750 143.191177
O 1.961657 5.883750 151.037964
O 1.961657 5.883750 158.884781
O 1.961657 5.883750 166.731583
O 1.961657 5.883750 174.578400
O 1.961657 5.883750 182.425201
O 1.961657 5.883750 190.272003
O 1.961657 5.883750 5.872025
O 1.961657 5.883750 13.718833
O 1.961657 5.883750 21.565641
O 1.961657 5.883750 29.412449
O 1.961657 5.883750 37.259258
O 1.961657 5.883750 45.106068
O 1.961657 5.883750 52.952869
O 1.961657 5.883750 60.799686
O 1.961657 5.883750 68.646492
O 1.961657 5.883750 76.493294
O 1.961657 5.883750 84.340103
O 1.961657 5.883750 92.186913
O 1.961657 5.883750 100.033722
O 1.961657 5.883750 107.880531
O 1.961657 5.883750 115.727333
O 1.961657 5.883750 123.574150
O 1.961657 5.883750 131.420959
O 1.961657 5.883750 139.267761
O 1.961657 5.883750 147.114578
O 1.961657 5.883750 154.961365
O 1.961657 5.883750 162.808182
O 1.961657 5.883750 170.654999
O 1.961657 5.883750 178.501801
O 1.961657 5.883750 186.348602
O 1.961657 5.883750 194.195419
O 1.961657 1.961250 1.948622
O 1.961657 1.961250 9.795429
O 1.961657 1.961250 17.642237
O 1.961657 1.961250 25.489044
O 1.961657 1.961250 33.335854
O 1.961657 1.961250 41.182659
O 1.961657 1.961250 49.029469
O 1.961657 1.961250 56.876278
O 1.961657 1.961250 64.723083
O 1.961657 1.961250 72.569901
O 1.961657 1.961250 80.416702
O 1.961657 1.961250 88.263512
O 1.961657 1.961250 96.110313
O 1.961657 1.961250 103.957123
O 1.961657 1.961250 111.803932
O 1.961657 1.961250 119.650749
O 1.961657 1.961250 127.497543
O 1.961657 1.961250 135.344360
O 1.961657 1.961250 143.191177
O 1.961657 1.961250 151.037964
O 1.961657 1.961250 158.884781
O 1.961657 1.961250 166.731583
O 1.961657 1.961250 174.578400
O 1.961657 1.961250 182.425201
O 1.961657 1.961250 190.272003
O 1.847489 4.037037 3.906032
O 1.847489 4.037037 11.752840
O 1.847489 4.037037 19.599648
O 1.847489 4.037037 27.446455
O 1.847489 4.037037 35.293262
O 1.847489 4.037037 43.140068
O 1.847489 4.037037 50.986877
O 1.847489 4.037037 58.833687
O 1.847489 4.037037 66.680496
O 1.847489 4.037037 74.527306
O 1.847489 4.037037 82.374107
O 1.847489 4.037037 90.220924
O 1.847489 4.037037 98.067726
O 1.847489 4.037037 105.914536
O 1.847489 4.037037 113.761345
O 1.847489 4.037037 121.608147
O 1.847489 4.037037 129.454956
O 1.847489 4.037037 137.301773
O 1.847489 4.037037 145.148575
O 1.847489 4.037037 152.995392
O 1.847489 4.037037 160.842209
O 1.847489 4.037037 168.689011
O 1.847489 4.037037 176.535812
O 1.847489 4.037037 184.382629
O 1.847489 4.037037 192.229431
O 3.922922 3.807963 5.767794
O 3.922922 3.807963 13.614601
O 3.922922 3.807963 21.461409
O 3.922922 3.807963 29.308216
O 3.922922 3.807963 37.155025
O 3.922922 3.807963 45.001831
O 3.922922 3.807963 52.848640
O 3.922922 3.807963 60.695446
O 3.922922 3.807963 68.542267
O 3.922922 3.807963 76.389069
O 3.922922 3.807963 84.235878
O 3.922922 3.807963 92.082687
O 3.922922 3.807963 99.929497
O 3.922922 3.807963 107.776299
O 3.922922 3.807963 115.623108
O 3.922922 3.807963 123.469925
O 3.922922 3.807963 131.316727
O 3.922922 3.807963 139.163528
O 3.922922 3.807963 147.010345
O 3.922922 3.807963 154.857147
O 3.922922 3.807963 162.703964
O 3.922922 3.807963 170.550766
O 3.922922 3.807963 178.397568
O 3.922922 3.807963 186.244385
O 3.922922 3.807963 194.091202
O 3.922922 0.114537 5.767794
O 3.922922 0.114537 13.614601
O 3.922922 0.114537 21.461409
O 3.922922 0.114537 29.308216
O 3.922922 0.114537 37.155025
O 3.922922 0.114537 45.001831
O 3.922922 0.114537 52.848640
O 3.922922 0.114537 60.695446
O 3.922922 0.114537 68.542267
O 3.922922 0.114537 76.389069
O 3.922922 0.114537 84.235878
O 3.922922 0.114537 92.082687
O 3.922922 0.114537 99.929497
O 3.922922 0.114537 107.776299
O 3.922922 0.114537 115.623108
O 3.922922 0.114537 123.469925
O 3.922922 0.114537 131.316727
O 3.922922 0.114537 139.163528
O 3.922922 0.114537 147.010345
O 3.922922 0.114537 154.857147
O 3.922922 0.114537 162.703964
O 3.922922 0.114537 170.550766
O 3.922922 0.114537 178.397568
O 3.922922 0.114537 186.244385
O 3.922922 0.114537 194.091202
O 0.000392 4.037037 5.976258
O 0.000392 4.037037 13.823066
O 0.000392 4.037037 21.669874
O 0.000392 4.037037 29.516684
O 0.000392 4.037037 37.363491
O 0.000392 4.037037 45.210297
O 0.000392 4.037037 53.057106
O 0.000392 4.037037 60.903915
O 0.000392 4.037037 68.750725
O 0.000392 4.037037 76.597527
O 0.000392 4.037037 84.444344
O 0.000392 4.037037 92.291145
O 0.000392 4.037037 100.137955
O 0.000392 4.037037 107.984764
O 0.000392 4.037037 115.831566
O 0.000392 4.037037 123.678383
O 0.000392 4.037037 131.525192
O 0.000392 4.037037 139.371979
O 0.000392 4.037037 147.218796
O 0.000392 4.037037 155.065613
O 0.000392 4.037037 162.912415
O 0.000392 4.037037 170.759216
O 0.000392 4.037037 178.606033
O 0.000392 4.037037 186.452835
O 0.000392 4.037037 194.299652
O 1.847489 7.730463 3.906032
O 1.847489 7.730463 11.752840
O 1.847489 7.730463 19.599648
O 1.847489 7.730463 27.446455
O 1.847489 7.730463 35.293262
O 1.847489 7.730463 43.140068
O 1.847489 7.730463 50.986877
O 1.847489 7.730463 58.833687
O 1.847489 7.730463 66.680496
O 1.847489 7.730463 74.527306
O 1.847489 7.730463 82.374107
O 1.847489 7.730463 90.220924
O 1.847489 7.730463 98.067726
O 1.847489 7.730463 105.914536
O 1.847489 7.730463 113.761345
O 1.847489 7.730463 121.608147
O 1.847489 7.730463 129.454956
O 1.847489 7.730463 137.301773
O 1.847489 7.730463 145.148575
O 1.847489 7.730463 152.995392
O 1.847489 7.730463 160.842209
O 1.847489 7.730463 168.689011
O 1.847489 7.730463 176.535812
O 1.847489 7.730463 184.382629
O 1.847489 7.730463 192.229431
O 2.075825 3.807963 7.838020
O 2.075825 3.807963 15.684828
O 2.075825 3.807963 23.531637
O 2.075825 3.807963 31.378445
O 2.075825 3.807963 39.225250
O 2.075825 3.807963 47.072060
O 2.075825 3.807963 54.918865
O 2.075825 3.807963 62.765678
O 2.075825 3.807963 70.612488
O 2.075825 3.807963 78.459290
O 2.075825 3.807963 86.306099
O 2.075825 3.807963 94.152908
O 2.075825 3.807963 101.999710
O 2.075825 3.807963 109.846519
O 2.075825 3.807963 117.693336
O 2.075825 3.807963 125.540131
O 2.075825 3.807963 133.386948
O 2.075825 3.807963 141.233765
O 2.075825 3.807963 149.080566
O 2.075825 3.807963 156.927383
O 2.075825 3.807963 164.774185
O 2.075825 3.807963 172.620987
O 2.075825 3.807963 180.467804
O 2.075825 3.807963 188.314621
O 2.075825 3.807963 196.161407
O 0.000392 7.730463 5.976258
O 0.000392 7.730463 13.823066
O 0.000392 7.730463 21.669874
O 0.000392 7.730463 29.516684
O 0.000392 7.730463 37.363491
O 0.000392 7.730463 45.210297
O 0.000392 7.730463 53.057106
O 0.000392 7.730463 60.903915
O 0.000392 7.730463 68.750725
O 0.000392 7.730463 76.597527
O 0.000392 7.730463 84.444344
O 0.000392 7.730463 92.291145
O 0.000392 7.730463 100.137955
O 0.000392 7.730463 107.984764
O 0.000392 7.730463 115.831566
O 0.000392 7.730463 123.678383
O 0.000392 7.730463 131.525192
O 0.000392 7.730463 139.371979
O 0.000392 7.730463 147.218796
O 0.000392 7.730463 155.065613
O 0.000392 7.730463 162.912415
O 0.000392 7.730463 170.759216
O 0.000392 7.730463 178.606033
O 0.000392 7.730463 186.452835
O 0.000392 7.730463 194.299652
O 2.075825 0.114537 7.838020
O 2.075825 0.114537 15.684828
O 2.075825 0.114537 23.531637
O 2.075825 0.114537 31.378445
O 2.075825 0.114537 39.225250
O 2.075825 0.114537 47.072060
O 2.075825 0.114537 54.918865
O 2.075825 0.114537 62.765678
O 2.075825 0.114537 70.612488
O 2.075825 0.114537 78.459290
O 2.075825 0.114537 86.306099
O 2.075825 0.114537 94.152908
O 2.075825 0.114537 101.999710
O 2.075825 0.114537 109.846519
O 2.075825 0.114537 117.693336
O 2.075825 0.114537 125.540131
O 2.075825 0.114537 133.386948
O 2.075825 0.114537 141.233765
O 2.075825 0.114537 149.080566
O 2.075825 0.114537 156.927383
O 2.075825 0.114537 164.774185
O 2.075825 0.114537 172.620987
O 2.075825 0.114537 180.467804
O 2.075825 0.114537 188.314621
O 2.075825 0.114537 196.161407
Ru 1.961657 3.922500 1.948622
Ru 1.961657 3.922500 9.795429
Ru 1.961657 3.922500 17.642237
Ru 1.961657 3.922500 25.489044
Ru 1.961657 3.922500 33.335854
Ru 1.961657 3.922500 41.182659
Ru 1.961657 3.922500 49.029469
Ru 1.961657 3.922500 56.876278
Ru 1.961657 3.922500 64.723083
Ru 1.961657 3.922500 72.569901
Ru 1.961657 3.922500 80.416702
Ru 1.961657 3.922500 88.263512
Ru 1.961657 3.922500 96.110313
Ru 1.961657 3.922500 103.957123
Ru 1.961657 3.922500 111.803932
Ru 1.961657 3.922500 119.650749
Ru 1.961657 3.922500 127.497543
Ru 1.961657 3.922500 135.344360
Ru 1.961657 3.922500 143.191177
Ru 1.961657 3.922500 151.037964
Ru 1.961657 3.922500 158.884781
Ru 1.961657 3.922500 166.731583
Ru 1.961657 3.922500 174.578400
Ru 1.961657 3.922500 182.425201
Ru 1.961657 3.922500 190.272003
Ru 1.961657 3.922500 5.872025
Ru 1.961657 3.922500 13.718833
Ru 1.961657 3.922500 21.565641
Ru 1.961657 3.922500 29.412449
Ru 1.961657 3.922500 37.259258
Ru 1.961657 3.922500 45.106068
Ru 1.961657 3.922500 52.952869
Ru 1.961657 3.922500 60.799686
Ru 1.961657 3.922500 68.646492
Ru 1.961657 3.922500 76.493294
Ru 1.961657 3.922500 84.340103
Ru 1.961657 3.922500 92.186913
Ru 1.961657 3.922500 100.033722
Ru 1.961657 3.922500 107.880531
Ru 1.961657 3.922500 115.727333
Ru 1.961657 3.922500 123.574150
Ru 1.961657 3.922500 131.420959
Ru 1.961657 3.922500 139.267761
Ru 1.961657 3.922500 147.114578
Ru 1.961657 3.922500 154.961365
Ru 1.961657 3.922500 162.808182
Ru 1.961657 3.922500 170.654999
Ru 1.961657 3.922500 178.501801
Ru 1.961657 3.922500 186.348602
Ru 1.961657 3.922500 194.195419
Ru 1.961657 0.000000 1.948622
Ru 1.961657 0.000000 9.795429
Ru 1.961657 0.000000 17.642237
Ru 1.961657 0.000000 25.489044
Ru 1.961657 0.000000 33.335854
Ru 1.961657 0.000000 41.182659
Ru 1.961657 0.000000 49.029469
Ru 1.961657 0.000000 56.876278
Ru 1.961657 0.000000 64.723083
Ru 1.961657 0.000000 72.569901
Ru 1.961657 0.000000 80.416702
Ru 1.961657 0.000000 88.263512
Ru 1.961657 0.000000 96.110313
Ru 1.961657 0.000000 103.957123
Ru 1.961657 0.000000 111.803932
Ru 1.961657 0.000000 119.650749
Ru 1.961657 0.000000 127.497543
Ru 1.961657 0.000000 135.344360
Ru 1.961657 0.000000 143.191177
Ru 1.961657 0.000000 151.037964
Ru 1.961657 0.000000 158.884781
Ru 1.961657 0.000000 166.731583
Ru 1.961657 0.000000 174.578400
Ru 1.961657 0.000000 182.425201
Ru 1.961657 0.000000 190.272003
Ru 1.961657 0.000000 5.872025
Ru 1.961657 0.000000 13.718833
Ru 1.961657 0.000000 21.565641
Ru 1.961657 0.000000 29.412449
Ru 1.961657 0.000000 37.259258
Ru 1.961657 0.000000 45.106068
Ru 1.961657 0.000000 52.952869
Ru 1.961657 0.000000 60.799686
Ru 1.961657 0.000000 68.646492
Ru 1.961657 0.000000 76.493294
Ru 1.961657 0.000000 84.340103
Ru 1.961657 0.000000 92.186913
Ru 1.961657 0.000000 100.033722
Ru 1.961657 0.000000 107.880531
Ru 1.961657 0.000000 115.727333
Ru 1.961657 0.000000 123.574150
Ru 1.961657 0.000000 131.420959
Ru 1.961657 0.000000 139.267761
Ru 1.961657 0.000000 147.114578
Ru 1.961657 0.000000 154.961365
Ru 1.961657 0.000000 162.808182
Ru 1.961657 0.000000 170.654999
Ru 1.961657 0.000000 178.501801
Ru 1.961657 0.000000 186.348602
Ru 1.961657 0.000000 194.195419
Sr 3.903697 5.883750 3.942890
Sr 3.903697 5.883750 11.789698
Sr 3.903697 5.883750 19.636505
Sr 3.903697 5.883750 27.483313
Sr 3.903697 5.883750 35.330124
Sr 3.903697 5.883750 43.176929
Sr 3.903697 5.883750 51.023735
Sr 3.903697 5.883750 58.870548
Sr 3.903697 5.883750 66.717354
Sr 3.903697 5.883750 74.564163
Sr 3.903697 5.883750 82.410973
Sr 3.903697 5.883750 90.257782
Sr 3.903697 5.883750 98.104591
Sr 3.903697 5.883750 105.951401
Sr 3.903697 5.883750 113.798203
Sr 3.903697 5.883750 121.645020
Sr 3.903697 5.883750 129.491821
Sr 3.903697 5.883750 137.338623
Sr 3.903697 5.883750 145.185440
Sr 3.903697 5.883750 153.032227
Sr 3.903697 5.883750 160.879044
Sr 3.903697 5.883750 168.725861
Sr 3.903697 5.883750 176.572662
Sr 3.903697 5.883750 184.419464
Sr 3.903697 5.883750 192.266281
Sr 0.014124 1.961250 11.730021
Sr 0.014124 1.961250 19.576828
Sr 0.014124 1.961250 27.423635
Sr 0.014124 1.961250 35.270443
Sr 0.014124 1.961250 43.117252
Sr 0.014124 1.961250 50.964058
Sr 0.014124 1.961250 58.810867
Sr 0.014124 1.961250 66.657677
Sr 0.014124 1.961250 74.504494
Sr 0.014124 1.961250 82.351295
Sr 0.014124 1.961250 90.198105
Sr 0.014124 1.961250 98.044907
Sr 0.014124 1.961250 105.891716
Sr 0.014124 1.961250 113.738525
Sr 0.014124 1.961250 121.585342
Sr 0.014124 1.961250 129.432129
Sr 0.014124 1.961250 137.278961
Sr 0.014124 1.961250 145.125778
Sr 0.014124 1.961250 152.972565
Sr 0.014124 1.961250 160.819382
Sr 0.014124 1.961250 168.666183
Sr 0.014124 1.961250 176.513000
Sr 0.014124 1.961250 184.359802
Sr 0.014124 1.961250 192.206604
Sr 0.014124 1.961250 200.053421
Sr 0.019617 1.961250 7.801161
Sr 0.019617 1.961250 15.647968
Sr 0.019617 1.961250 23.494778
Sr 0.019617 1.961250 31.341585
Sr 0.019617 1.961250 39.188396
Sr 0.019617 1.961250 47.035202
Sr 0.019617 1.961250 54.882008
Sr 0.019617 1.961250 62.728821
Sr 0.019617 1.961250 70.575630
Sr 0.019617 1.961250 78.422432
Sr 0.019617 1.961250 86.269241
Sr 0.019617 1.961250 94.116051
Sr 0.019617 1.961250 101.962860
Sr 0.019617 1.961250 109.809669
Sr 0.019617 1.961250 117.656471
Sr 0.019617 1.961250 125.503288
Sr 0.019617 1.961250 133.350098
Sr 0.019617 1.961250 141.196899
Sr 0.019617 1.961250 149.043716
Sr 0.019617 1.961250 156.890503
Sr 0.019617 1.961250 164.737320
Sr 0.019617 1.961250 172.584137
Sr 0.019617 1.961250 180.430939
Sr 0.019617 1.961250 188.277740
Sr 0.019617 1.961250 196.124557
Sr 3.909190 5.883750 0.014030
Sr 3.909190 5.883750 7.860838
Sr 3.909190 5.883750 15.707645
Sr 3.909190 5.883750 23.554453
Sr 3.909190 5.883750 31.401260
Sr 3.909190 5.883750 39.248070
Sr 3.909190 5.883750 47.094875
Sr 3.909190 5.883750 54.941685
Sr 3.909190 5.883750 62.788490
Sr 3.909190 5.883750 70.635307
Sr 3.909190 5.883750 78.482109
Sr 3.909190 5.883750 86.328918
Sr 3.909190 5.883750 94.175720
Sr 3.909190 5.883750 102.022530
Sr 3.909190 5.883750 109.869339
Sr 3.909190 5.883750 117.716156
Sr 3.909190 5.883750 125.562950
Sr 3.909190 5.883750 133.409775
Sr 3.909190 5.883750 141.256592
Sr 3.909190 5.883750 149.103378
Sr 3.909190 5.883750 156.950195
Sr 3.909190 5.883750 164.796997
Sr 3.909190 5.883750 172.643814
Sr 3.909190 5.883750 180.490616
Sr 3.909190 5.883750 188.337418
