760
new structure
O 1.840819 1.961250 5.766069
O 1.840819 1.961250 13.608161
O 1.840819 1.961250 21.450253
O 1.840819 1.961250 29.292347
O 1.840819 1.961250 37.164257
O 1.840819 1.961250 45.006344
O 1.840819 1.961250 52.848442
O 1.840819 1.961250 60.690533
O 1.840819 1.961250 68.532623
O 1.840819 1.961250 76.374725
O 1.840819 1.961250 84.246628
O 1.840819 1.961250 92.088715
O 1.840819 1.961250 99.930817
O 1.840819 1.961250 107.772903
O 1.840819 1.961250 115.615005
O 1.840819 1.961250 123.457092
O 1.840819 1.961250 131.299194
O 1.840819 1.961250 139.171097
O 1.840819 1.961250 147.013184
O 1.840819 1.961250 154.855270
O 1.840819 1.961250 162.697372
O 1.840819 1.961250 170.539459
O 1.840819 1.961250 178.381561
O 1.840819 1.961250 186.253464
O 1.840819 1.961250 194.095551
O 1.840819 1.961250 201.937653
O 1.840819 1.961250 209.779755
O 1.840819 1.961250 217.621826
O 1.840819 1.961250 225.463928
O 1.840819 1.961250 233.335846
O 1.840819 1.961250 241.177933
O 1.840819 1.961250 249.020020
O 1.840819 1.961250 256.862091
O 1.840819 1.961250 264.704193
O 1.840819 1.961250 272.546295
O 1.840819 1.961250 280.388367
O 1.840819 1.961250 288.260315
O 1.840819 1.961250 296.102386
O 1.854158 5.883750 9.688773
O 1.854158 5.883750 17.530865
O 1.854158 5.883750 25.372957
O 1.854158 5.883750 33.215054
O 1.854158 5.883750 41.057137
O 1.854158 5.883750 48.899235
O 1.854158 5.883750 56.741325
O 1.854158 5.883750 64.613235
O 1.854158 5.883750 72.455338
O 1.854158 5.883750 80.297424
O 1.854158 5.883750 88.139519
O 1.854158 5.883750 95.981613
O 1.854158 5.883750 103.823708
O 1.854158 5.883750 111.695618
O 1.854158 5.883750 119.537704
O 1.854158 5.883750 127.379799
O 1.854158 5.883750 135.221878
O 1.854158 5.883750 143.063980
O 1.854158 5.883750 150.906067
O 1.854158 5.883750 158.777985
O 1.854158 5.883750 166.620071
O 1.854158 5.883750 174.462158
O 1.854158 5.883750 182.304245
O 1.854158 5.883750 190.146347
O 1.854158 5.883750 197.988449
O 1.854158 5.883750 205.830521
O 1.854158 5.883750 213.702438
O 1.854158 5.883750 221.544540
O 1.854158 5.883750 229.386612
O 1.854158 5.883750 237.228714
O 1.854158 5.883750 245.070801
O 1.854158 5.883750 252.912903
O 1.854158 5.883750 260.784821
O 1.854158 5.883750 268.626923
O 1.854158 5.883750 276.468994
O 1.854158 5.883750 284.311096
O 1.854158 5.883750 292.153168
O 1.854158 5.883750 299.995270
O 2.082495 5.883750 5.973267
O 2.082495 5.883750 13.815358
O 2.082495 5.883750 21.687269
O 2.082495 5.883750 29.529360
O 2.082495 5.883750 37.371452
O 2.082495 5.883750 45.213547
O 2.082495 5.883750 53.055637
O 2.082495 5.883750 60.897728
O 2.082495 5.883750 68.769646
O 2.082495 5.883750 76.611740
O 2.082495 5.883750 84.453827
O 2.082495 5.883750 92.295921
O 2.082495 5.883750 100.138008
O 2.082495 5.883750 107.980103
O 2.082495 5.883750 115.822189
O 2.082495 5.883750 123.694099
O 2.082495 5.883750 131.536194
O 2.082495 5.883750 139.378296
O 2.082495 5.883750 147.220383
O 2.082495 5.883750 155.062469
O 2.082495 5.883750 162.904572
O 2.082495 5.883750 170.776489
O 2.082495 5.883750 178.618561
O 2.082495 5.883750 186.460663
O 2.082495 5.883750 194.302765
O 2.082495 5.883750 202.144852
O 2.082495 5.883750 209.986938
O 2.082495 5.883750 217.829025
O 2.082495 5.883750 225.700943
O 2.082495 5.883750 233.543045
O 2.082495 5.883750 241.385117
O 2.082495 5.883750 249.227219
O 2.082495 5.883750 257.069305
O 2.082495 5.883750 264.911407
O 2.082495 5.883750 272.783295
O 2.082495 5.883750 280.625397
O 2.082495 5.883750 288.467499
O 2.082495 5.883750 296.309570
O 2.069156 1.961250 2.080380
O 2.069156 1.961250 9.922472
O 2.069156 1.961250 17.764565
O 2.069156 1.961250 25.606655
O 2.069156 1.961250 33.448750
O 2.069156 1.961250 41.290844
O 2.069156 1.961250 49.162754
O 2.069156 1.961250 57.004845
O 2.069156 1.961250 64.846939
O 2.069156 1.961250 72.689034
O 2.069156 1.961250 80.531128
O 2.069156 1.961250 88.373215
O 2.069156 1.961250 96.245125
O 2.069156 1.961250 104.087219
O 2.069156 1.961250 111.929306
O 2.069156 1.961250 119.771400
O 2.069156 1.961250 127.613487
O 2.069156 1.961250 135.455582
O 2.069156 1.961250 143.297684
O 2.069156 1.961250 151.169586
O 2.069156 1.961250 159.011688
O 2.069156 1.961250 166.853760
O 2.069156 1.961250 174.695862
O 2.069156 1.961250 182.537964
O 2.069156 1.961250 190.380051
O 2.069156 1.961250 198.251953
O 2.069156 1.961250 206.094055
O 2.069156 1.961250 213.936142
O 2.069156 1.961250 221.778244
O 2.069156 1.961250 229.620316
O 2.069156 1.961250 237.462418
O 2.069156 1.961250 245.334335
O 2.069156 1.961250 253.176407
O 2.069156 1.961250 261.018494
O 2.069156 1.961250 268.860596
O 2.069156 1.961250 276.702698
O 2.069156 1.961250 284.544769
O 2.069156 1.961250 292.386871
O 2.075825 0.114537 7.828598
O 2.075825 0.114537 15.670690
O 2.075825 0.114537 23.542601
O 2.075825 0.114537 31.384693
O 2.075825 0.114537 39.226788
O 2.075825 0.114537 47.068878
O 2.075825 0.114537 54.910969
O 2.075825 0.114537 62.753063
O 2.075825 0.114537 70.595154
O 2.075825 0.114537 78.467064
O 2.075825 0.114537 86.309158
O 2.075825 0.114537 94.151245
O 2.075825 0.114537 101.993340
O 2.075825 0.114537 109.835426
O 2.075825 0.114537 117.677528
O 2.075825 0.114537 125.549438
O 2.075825 0.114537 133.391525
O 2.075825 0.114537 141.233627
O 2.075825 0.114537 149.075714
O 2.075825 0.114537 156.917801
O 2.075825 0.114537 164.759903
O 2.075825 0.114537 172.631805
O 2.075825 0.114537 180.473907
O 2.075825 0.114537 188.315994
O 2.075825 0.114537 196.158096
O 2.075825 0.114537 204.000168
O 2.075825 0.114537 211.842270
O 2.075825 0.114537 219.684357
O 2.075825 0.114537 227.556290
O 2.075825 0.114537 235.398361
O 2.075825 0.114537 243.240463
O 2.075825 0.114537 251.082550
O 2.075825 0.114537 258.924622
O 2.075825 0.114537 266.766724
O 2.075825 0.114537 274.638641
O 2.075825 0.114537 282.480713
O 2.075825 0.114537 290.322815
O 2.075825 0.114537 298.164886
O 0.000392 7.730463 5.984103
O 0.000392 7.730463 13.826195
O 0.000392 7.730463 21.668287
O 0.000392 7.730463 29.510380
O 0.000392 7.730463 37.352470
O 0.000392 7.730463 45.194565
O 0.000392 7.730463 53.066475
O 0.000392 7.730463 60.908566
O 0.000392 7.730463 68.750664
O 0.000392 7.730463 76.592751
O 0.000392 7.730463 84.434845
O 0.000392 7.730463 92.276939
O 0.000392 7.730463 100.148849
O 0.000392 7.730463 107.990936
O 0.000392 7.730463 115.833031
O 0.000392 7.730463 123.675117
O 0.000392 7.730463 131.517212
O 0.000392 7.730463 139.359299
O 0.000392 7.730463 147.201385
O 0.000392 7.730463 155.073318
O 0.000392 7.730463 162.915390
O 0.000392 7.730463 170.757492
O 0.000392 7.730463 178.599579
O 0.000392 7.730463 186.441681
O 0.000392 7.730463 194.283752
O 0.000392 7.730463 202.155670
O 0.000392 7.730463 209.997772
O 0.000392 7.730463 217.839844
O 0.000392 7.730463 225.681946
O 0.000392 7.730463 233.524033
O 0.000392 7.730463 241.366135
O 0.000392 7.730463 249.238037
O 0.000392 7.730463 257.080139
O 0.000392 7.730463 264.922241
O 0.000392 7.730463 272.764313
O 0.000392 7.730463 280.606415
O 0.000392 7.730463 288.448486
O 0.000392 7.730463 296.290588
O 1.847489 4.037037 3.910738
O 1.847489 4.037037 11.752830
O 1.847489 4.037037 19.594923
O 1.847489 4.037037 27.437014
O 1.847489 4.037037 35.308926
O 1.847489 4.037037 43.151012
O 1.847489 4.037037 50.993111
O 1.847489 4.037037 58.835201
O 1.847489 4.037037 66.677299
O 1.847489 4.037037 74.519386
O 1.847489 4.037037 82.391296
O 1.847489 4.037037 90.233391
O 1.847489 4.037037 98.075478
O 1.847489 4.037037 105.917580
O 1.847489 4.037037 113.759666
O 1.847489 4.037037 121.601761
O 1.847489 4.037037 129.443848
O 1.847489 4.037037 137.315765
O 1.847489 4.037037 145.157867
O 1.847489 4.037037 152.999954
O 1.847489 4.037037 160.842056
O 1.847489 4.037037 168.684128
O 1.847489 4.037037 176.526230
O 1.847489 4.037037 184.398148
O 1.847489 4.037037 192.240219
O 1.847489 4.037037 200.082321
O 1.847489 4.037037 207.924408
O 1.847489 4.037037 215.766510
O 1.847489 4.037037 223.608582
O 1.847489 4.037037 231.480515
O 1.847489 4.037037 239.322601
O 1.847489 4.037037 247.164703
O 1.847489 4.037037 255.006775
O 1.847489 4.037037 262.848877
O 1.847489 4.037037 270.690979
O 1.847489 4.037037 278.533081
O 1.847489 4.037037 286.404968
O 1.847489 4.037037 294.247070
O 3.922922 0.114537 5.785051
O 3.922922 0.114537 13.627143
O 3.922922 0.114537 21.469233
O 3.922922 0.114537 29.311327
O 3.922922 0.114537 37.153419
O 3.922922 0.114537 44.995514
O 3.922922 0.114537 52.837605
O 3.922922 0.114537 60.709515
O 3.922922 0.114537 68.551613
O 3.922922 0.114537 76.393700
O 3.922922 0.114537 84.235794
O 3.922922 0.114537 92.077888
O 3.922922 0.114537 99.919975
O 3.922922 0.114537 107.791885
O 3.922922 0.114537 115.633987
O 3.922922 0.114537 123.476074
O 3.922922 0.114537 131.318161
O 3.922922 0.114537 139.160248
O 3.922922 0.114537 147.002350
O 3.922922 0.114537 154.874268
O 3.922922 0.114537 162.716354
O 3.922922 0.114537 170.558456
O 3.922922 0.114537 178.400528
O 3.922922 0.114537 186.242630
O 3.922922 0.114537 194.084717
O 3.922922 0.114537 201.926819
O 3.922922 0.114537 209.798721
O 3.922922 0.114537 217.640823
O 3.922922 0.114537 225.482910
O 3.922922 0.114537 233.325012
O 3.922922 0.114537 241.167084
O 3.922922 0.114537 249.009186
O 3.922922 0.114537 256.881104
O 3.922922 0.114537 264.723175
O 3.922922 0.114537 272.565277
O 3.922922 0.114537 280.407379
O 3.922922 0.114537 288.249481
O 3.922922 0.114537 296.091553
O 3.922922 3.807963 5.785051
O 3.922922 3.807963 13.627143
O 3.922922 3.807963 21.469233
O 3.922922 3.807963 29.311327
O 3.922922 3.807963 37.153419
O 3.922922 3.807963 44.995514
O 3.922922 3.807963 52.837605
O 3.922922 3.807963 60.709515
O 3.922922 3.807963 68.551613
O 3.922922 3.807963 76.393700
O 3.922922 3.807963 84.235794
O 3.922922 3.807963 92.077888
O 3.922922 3.807963 99.919975
O 3.922922 3.807963 107.791885
O 3.922922 3.807963 115.633987
O 3.922922 3.807963 123.476074
O 3.922922 3.807963 131.318161
O 3.922922 3.807963 139.160248
O 3.922922 3.807963 147.002350
O 3.922922 3.807963 154.874268
O 3.922922 3.807963 162.716354
O 3.922922 3.807963 170.558456
O 3.922922 3.807963 178.400528
O 3.922922 3.807963 186.242630
O 3.922922 3.807963 194.084717
O 3.922922 3.807963 201.926819
O 3.922922 3.807963 209.798721
O 3.922922 3.807963 217.640823
O 3.922922 3.807963 225.482910
O 3.922922 3.807963 233.325012
O 3.922922 3.807963 241.167084
O 3.922922 3.807963 249.009186
O 3.922922 3.807963 256.881104
O 3.922922 3.807963 264.723175
O 3.922922 3.807963 272.565277
O 3.922922 3.807963 280.407379
O 3.922922 3.807963 288.249481
O 3.922922 3.807963 296.091553
O 0.000392 4.037037 5.984103
O 0.000392 4.037037 13.826195
O 0.000392 4.037037 21.668287
O 0.000392 4.037037 29.510380
O 0.000392 4.037037 37.352470
O 0.000392 4.037037 45.194565
O 0.000392 4.037037 53.066475
O 0.000392 4.037037 60.908566
O 0.000392 4.037037 68.750664
O 0.000392 4.037037 76.592751
O 0.000392 4.037037 84.434845
O 0.000392 4.037037 92.276939
O 0.000392 4.037037 100.148849
O 0.000392 4.037037 107.990936
O 0.000392 4.037037 115.833031
O 0.000392 4.037037 123.675117
O 0.000392 4.037037 131.517212
O 0.000392 4.037037 139.359299
O 0.000392 4.037037 147.201385
O 0.000392 4.037037 155.073318
O 0.000392 4.037037 162.915390
O 0.000392 4.037037 170.757492
O 0.000392 4.037037 178.599579
O 0.000392 4.037037 186.441681
O 0.000392 4.037037 194.283752
O 0.000392 4.037037 202.155670
O 0.000392 4.037037 209.997772
O 0.000392 4.037037 217.839844
O 0.000392 4.037037 225.681946
O 0.000392 4.037037 233.524033
O 0.000392 4.037037 241.366135
O 0.000392 4.037037 249.238037
O 0.000392 4.037037 257.080139
O 0.000392 4.037037 264.922241
O 0.000392 4.037037 272.764313
O 0.000392 4.037037 280.606415
O 0.000392 4.037037 288.448486
O 0.000392 4.037037 296.290588
O 1.847489 7.730463 3.910738
O 1.847489 7.730463 11.752830
O 1.847489 7.730463 19.594923
O 1.847489 7.730463 27.437014
O 1.847489 7.730463 35.308926
O 1.847489 7.730463 43.151012
O 1.847489 7.730463 50.993111
O 1.847489 7.730463 58.835201
O 1.847489 7.730463 66.677299
O 1.847489 7.730463 74.519386
O 1.847489 7.730463 82.391296
O 1.847489 7.730463 90.233391
O 1.847489 7.730463 98.075478
O 1.847489 7.730463 105.917580
O 1.847489 7.730463 113.759666
O 1.847489 7.730463 121.601761
O 1.847489 7.730463 129.443848
O 1.847489 7.730463 137.315765
O 1.847489 7.730463 145.157867
O 1.847489 7.730463 152.999954
O 1.847489 7.730463 160.842056
O 1.847489 7.730463 168.684128
O 1.847489 7.730463 176.526230
O 1.847489 7.730463 184.398148
O 1.847489 7.730463 192.240219
O 1.847489 7.730463 200.082321
O 1.847489 7.730463 207.924408
O 1.847489 7.730463 215.766510
O 1.847489 7.730463 223.608582
O 1.847489 7.730463 231.480515
O 1.847489 7.730463 239.322601
O 1.847489 7.730463 247.164703
O 1.847489 7.730463 255.006775
O 1.847489 7.730463 262.848877
O 1.847489 7.730463 270.690979
O 1.847489 7.730463 278.533081
O 1.847489 7.730463 286.404968
O 1.847489 7.730463 294.247070
O 2.075825 3.807963 7.828598
O 2.075825 3.807963 15.670690
O 2.075825 3.807963 23.542601
O 2.075825 3.807963 31.384693
O 2.075825 3.807963 39.226788
O 2.075825 3.807963 47.068878
O 2.075825 3.807963 54.910969
O 2.075825 3.807963 62.753063
O 2.075825 3.807963 70.595154
O 2.075825 3.807963 78.467064
O 2.075825 3.807963 86.309158
O 2.075825 3.807963 94.151245
O 2.075825 3.807963 101.993340
O 2.075825 3.807963 109.835426
O 2.075825 3.807963 117.677528
O 2.075825 3.807963 125.549438
O 2.075825 3.807963 133.391525
O 2.075825 3.807963 141.233627
O 2.075825 3.807963 149.075714
O 2.075825 3.807963 156.917801
O 2.075825 3.807963 164.759903
O 2.075825 3.807963 172.631805
O 2.075825 3.807963 180.473907
O 2.075825 3.807963 188.315994
O 2.075825 3.807963 196.158096
O 2.075825 3.807963 204.000168
O 2.075825 3.807963 211.842270
O 2.075825 3.807963 219.684357
O 2.075825 3.807963 227.556290
O 2.075825 3.807963 235.398361
O 2.075825 3.807963 243.240463
O 2.075825 3.807963 251.082550
O 2.075825 3.807963 258.924622
O 2.075825 3.807963 266.766724
O 2.075825 3.807963 274.638641
O 2.075825 3.807963 282.480713
O 2.075825 3.807963 290.322815
O 2.075825 3.807963 298.164886
Ru 1.961657 0.000000 1.948622
Ru 1.961657 0.000000 9.790714
Ru 1.961657 0.000000 17.632807
Ru 1.961657 0.000000 25.474899
Ru 1.961657 0.000000 33.346809
Ru 1.961657 0.000000 41.188900
Ru 1.961657 0.000000 49.030994
Ru 1.961657 0.000000 56.873089
Ru 1.961657 0.000000 64.715179
Ru 1.961657 0.000000 72.557274
Ru 1.961657 0.000000 80.429184
Ru 1.961657 0.000000 88.271271
Ru 1.961657 0.000000 96.113365
Ru 1.961657 0.000000 103.955452
Ru 1.961657 0.000000 111.797554
Ru 1.961657 0.000000 119.639641
Ru 1.961657 0.000000 127.511551
Ru 1.961657 0.000000 135.353638
Ru 1.961657 0.000000 143.195724
Ru 1.961657 0.000000 151.037827
Ru 1.961657 0.000000 158.879929
Ru 1.961657 0.000000 166.722015
Ru 1.961657 0.000000 174.564102
Ru 1.961657 0.000000 182.436020
Ru 1.961657 0.000000 190.278107
Ru 1.961657 0.000000 198.120193
Ru 1.961657 0.000000 205.962280
Ru 1.961657 0.000000 213.804382
Ru 1.961657 0.000000 221.646484
Ru 1.961657 0.000000 229.518372
Ru 1.961657 0.000000 237.360474
Ru 1.961657 0.000000 245.202576
Ru 1.961657 0.000000 253.044662
Ru 1.961657 0.000000 260.886749
Ru 1.961657 0.000000 268.728851
Ru 1.961657 0.000000 276.600769
Ru 1.961657 0.000000 284.442841
Ru 1.961657 0.000000 292.284943
Ru 1.961657 0.000000 5.884577
Ru 1.961657 0.000000 13.726669
Ru 1.961657 0.000000 21.568762
Ru 1.961657 0.000000 29.410854
Ru 1.961657 0.000000 37.252949
Ru 1.961657 0.000000 45.095036
Ru 1.961657 0.000000 52.966946
Ru 1.961657 0.000000 60.809040
Ru 1.961657 0.000000 68.651131
Ru 1.961657 0.000000 76.493225
Ru 1.961657 0.000000 84.335320
Ru 1.961657 0.000000 92.177406
Ru 1.961657 0.000000 100.019501
Ru 1.961657 0.000000 107.891411
Ru 1.961657 0.000000 115.733498
Ru 1.961657 0.000000 123.575600
Ru 1.961657 0.000000 131.417679
Ru 1.961657 0.000000 139.259781
Ru 1.961657 0.000000 147.101868
Ru 1.961657 0.000000 154.973770
Ru 1.961657 0.000000 162.815872
Ru 1.961657 0.000000 170.657974
Ru 1.961657 0.000000 178.500061
Ru 1.961657 0.000000 186.342148
Ru 1.961657 0.000000 194.184235
Ru 1.961657 0.000000 202.056152
Ru 1.961657 0.000000 209.898239
Ru 1.961657 0.000000 217.740326
Ru 1.961657 0.000000 225.582428
Ru 1.961657 0.000000 233.424530
Ru 1.961657 0.000000 241.266617
Ru 1.961657 0.000000 249.108704
Ru 1.961657 0.000000 256.980621
Ru 1.961657 0.000000 264.822723
Ru 1.961657 0.000000 272.664795
Ru 1.961657 0.000000 280.506897
Ru 1.961657 0.000000 288.348999
Ru 1.961657 0.000000 296.191101
Ru 1.961657 3.922500 1.948622
Ru 1.961657 3.922500 9.790714
Ru 1.961657 3.922500 17.632807
Ru 1.961657 3.922500 25.474899
Ru 1.961657 3.922500 33.346809
Ru 1.961657 3.922500 41.188900
Ru 1.961657 3.922500 49.030994
Ru 1.961657 3.922500 56.873089
Ru 1.961657 3.922500 64.715179
Ru 1.961657 3.922500 72.557274
Ru 1.961657 3.922500 80.429184
Ru 1.961657 3.922500 88.271271
Ru 1.961657 3.922500 96.113365
Ru 1.961657 3.922500 103.955452
Ru 1.961657 3.922500 111.797554
Ru 1.961657 3.922500 119.639641
Ru 1.961657 3.922500 127.511551
Ru 1.961657 3.922500 135.353638
Ru 1.961657 3.922500 143.195724
Ru 1.961657 3.922500 151.037827
Ru 1.961657 3.922500 158.879929
Ru 1.961657 3.922500 166.722015
Ru 1.961657 3.922500 174.564102
Ru 1.961657 3.922500 182.436020
Ru 1.961657 3.922500 190.278107
Ru 1.961657 3.922500 198.120193
Ru 1.961657 3.922500 205.962280
Ru 1.961657 3.922500 213.804382
Ru 1.961657 3.922500 221.646484
Ru 1.961657 3.922500 229.518372
Ru 1.961657 3.922500 237.360474
Ru 1.961657 3.922500 245.202576
Ru 1.961657 3.922500 253.044662
Ru 1.961657 3.922500 260.886749
Ru 1.961657 3.922500 268.728851
Ru 1.961657 3.922500 276.600769
Ru 1.961657 3.922500 284.442841
Ru 1.961657 3.922500 292.284943
Ru 1.961657 3.922500 5.884577
Ru 1.961657 3.922500 13.726669
Ru 1.961657 3.922500 21.568762
Ru 1.961657 3.922500 29.410854
Ru 1.961657 3.922500 37.252949
Ru 1.961657 3.922500 45.095036
Ru 1.961657 3.922500 52.966946
Ru 1.961657 3.922500 60.809040
Ru 1.961657 3.922500 68.651131
Ru 1.961657 3.922500 76.493225
Ru 1.961657 3.922500 84.335320
Ru 1.961657 3.922500 92.177406
Ru 1.961657 3.922500 100.019501
Ru 1.961657 3.922500 107.891411
Ru 1.961657 3.922500 115.733498
Ru 1.961657 3.922500 123.575600
Ru 1.961657 3.922500 131.417679
Ru 1.961657 3.922500 139.259781
Ru 1.961657 3.922500 147.101868
Ru 1.961657 3.922500 154.973770
Ru 1.961657 3.922500 162.815872
Ru 1.961657 3.922500 170.657974
Ru 1.961657 3.922500 178.500061
Ru 1.961657 3.922500 186.342148
Ru 1.961657 3.922500 194.184235
Ru 1.961657 3.922500 202.056152
Ru 1.961657 3.922500 209.898239
Ru 1.961657 3.922500 217.740326
Ru 1.961657 3.922500 225.582428
Ru 1.961657 3.922500 233.424530
Ru 1.961657 3.922500 241.266617
Ru 1.961657 3.922500 249.108704
Ru 1.961657 3.922500 256.980621
Ru 1.961657 3.922500 264.822723
Ru 1.961657 3.922500 272.664795
Ru 1.961657 3.922500 280.506897
Ru 1.961657 3.922500 288.348999
Ru 1.961657 3.922500 296.191101
Sr 0.019617 1.961250 7.813713
Sr 0.019617 1.961250 15.655805
Sr 0.019617 1.961250 23.497898
Sr 0.019617 1.961250 31.339991
Sr 0.019617 1.961250 39.182083
Sr 0.019617 1.961250 47.053993
Sr 0.019617 1.961250 54.896084
Sr 0.019617 1.961250 62.738178
Sr 0.019617 1.961250 70.580269
Sr 0.019617 1.961250 78.422363
Sr 0.019617 1.961250 86.264458
Sr 0.019617 1.961250 94.136368
Sr 0.019617 1.961250 101.978455
Sr 0.019617 1.961250 109.820549
Sr 0.019617 1.961250 117.662636
Sr 0.019617 1.961250 125.504738
Sr 0.019617 1.961250 133.346817
Sr 0.019617 1.961250 141.188919
Sr 0.019617 1.961250 149.060822
Sr 0.019617 1.961250 156.902908
Sr 0.019617 1.961250 164.745010
Sr 0.019617 1.961250 172.587112
Sr 0.019617 1.961250 180.429199
Sr 0.019617 1.961250 188.271286
Sr 0.019617 1.961250 196.143204
Sr 0.019617 1.961250 203.985291
Sr 0.019617 1.961250 211.827377
Sr 0.019617 1.961250 219.669464
Sr 0.019617 1.961250 227.511566
Sr 0.019617 1.961250 235.353668
Sr 0.019617 1.961250 243.195755
Sr 0.019617 1.961250 251.067657
Sr 0.019617 1.961250 258.909760
Sr 0.019617 1.961250 266.751831
Sr 0.019617 1.961250 274.593903
Sr 0.019617 1.961250 282.436005
Sr 0.019617 1.961250 290.278107
Sr 0.019617 1.961250 298.149994
Sr 3.909190 5.883750 0.014030
Sr 3.909190 5.883750 7.856122
Sr 3.909190 5.883750 15.728033
Sr 3.909190 5.883750 23.570126
Sr 3.909190 5.883750 31.412216
Sr 3.909190 5.883750 39.254311
Sr 3.909190 5.883750 47.096401
Sr 3.909190 5.883750 54.938496
Sr 3.909190 5.883750 62.780586
Sr 3.909190 5.883750 70.652496
Sr 3.909190 5.883750 78.494591
Sr 3.909190 5.883750 86.336678
Sr 3.909190 5.883750 94.178772
Sr 3.909190 5.883750 102.020859
Sr 3.909190 5.883750 109.862961
Sr 3.909190 5.883750 117.734871
Sr 3.909190 5.883750 125.576958
Sr 3.909190 5.883750 133.419052
Sr 3.909190 5.883750 141.261139
Sr 3.909190 5.883750 149.103241
Sr 3.909190 5.883750 156.945343
Sr 3.909190 5.883750 164.787430
Sr 3.909190 5.883750 172.659332
Sr 3.909190 5.883750 180.501434
Sr 3.909190 5.883750 188.343521
Sr 3.909190 5.883750 196.185608
Sr 3.909190 5.883750 204.027695
Sr 3.909190 5.883750 211.869797
Sr 3.909190 5.883750 219.741699
Sr 3.909190 5.883750 227.583786
Sr 3.909190 5.883750 235.425888
Sr 3.909190 5.883750 243.267990
Sr 3.909190 5.883750 251.110077
Sr 3.909190 5.883750 258.952148
Sr 3.909190 5.883750 266.824066
Sr 3.909190 5.883750 274.666168
Sr 3.909190 5.883750 282.508240
Sr 3.909190 5.883750 290.350342
Sr 3.903697 5.883750 3.925623
Sr 3.903697 5.883750 11.797534
Sr 3.903697 5.883750 19.639626
Sr 3.903697 5.883750 27.481718
Sr 3.903697 5.883750 35.323811
Sr 3.903697 5.883750 43.165901
Sr 3.903697 5.883750 51.007996
Sr 3.903697 5.883750 58.850086
Sr 3.903697 5.883750 66.721992
Sr 3.903697 5.883750 74.564095
Sr 3.903697 5.883750 82.406189
Sr 3.903697 5.883750 90.248276
Sr 3.903697 5.883750 98.090370
Sr 3.903697 5.883750 105.932457
Sr 3.903697 5.883750 113.804367
Sr 3.903697 5.883750 121.646469
Sr 3.903697 5.883750 129.488541
Sr 3.903697 5.883750 137.330643
Sr 3.903697 5.883750 145.172729
Sr 3.903697 5.883750 153.014832
Sr 3.903697 5.883750 160.886734
Sr 3.903697 5.883750 168.728836
Sr 3.903697 5.883750 176.570923
Sr 3.903697 5.883750 184.413010
Sr 3.903697 5.883750 192.255096
Sr 3.903697 5.883750 200.097198
Sr 3.903697 5.883750 207.969101
Sr 3.903697 5.883750 215.811188
Sr 3.903697 5.883750 223.653290
Sr 3.903697 5.883750 231.495392
Sr 3.903697 5.883750 239.337479
Sr 3.903697 5.883750 247.179565
Sr 3.903697 5.883750 255.021652
Sr 3.903697 5.883750 262.893585
Sr 3.903697 5.883750 270.735657
Sr 3.903697 5.883750 278.577759
Sr 3.903697 5.883750 286.419861
Sr 3.903697 5.883750 294.261963
Sr 0.014124 1.961250 11.725306
Sr 0.014124 1.961250 19.567398
Sr 0.014124 1.961250 27.409491
Sr 0.014124 1.961250 35.251583
Sr 0.014124 1.961250 43.123493
Sr 0.014124 1.961250 50.965584
Sr 0.014124 1.961250 58.807678
Sr 0.014124 1.961250 66.649773
Sr 0.014124 1.961250 74.491867
Sr 0.014124 1.961250 82.333954
Sr 0.014124 1.961250 90.205864
Sr 0.014124 1.961250 98.047958
Sr 0.014124 1.961250 105.890045
Sr 0.014124 1.961250 113.732147
Sr 0.014124 1.961250 121.574234
Sr 0.014124 1.961250 129.416321
Sr 0.014124 1.961250 137.258423
Sr 0.014124 1.961250 145.130325
Sr 0.014124 1.961250 152.972427
Sr 0.014124 1.961250 160.814529
Sr 0.014124 1.961250 168.656616
Sr 0.014124 1.961250 176.498703
Sr 0.014124 1.961250 184.340790
Sr 0.014124 1.961250 192.212708
Sr 0.014124 1.961250 200.054794
Sr 0.014124 1.961250 207.896881
Sr 0.014124 1.961250 215.738983
Sr 0.014124 1.961250 223.581085
Sr 0.014124 1.961250 231.423172
Sr 0.014124 1.961250 239.295074
Sr 0.014124 1.961250 247.137177
Sr 0.014124 1.961250 254.979263
Sr 0.014124 1.961250 262.821320
Sr 0.014124 1.961250 270.663422
Sr 0.014124 1.961250 278.505524
Sr 0.014124 1.961250 286.377411
Sr 0.014124 1.961250 294.219513
Sr 0.014124 1.961250 302.061615
