500
new structure
O 1.840819 1.961250 5.756653
O 1.840819 1.961250 13.603453
O 1.840819 1.961250 21.450253
O 1.840819 1.961250 29.297052
O 1.840819 1.961250 37.143852
O 1.840819 1.961250 44.990650
O 1.840819 1.961250 52.837452
O 1.840819 1.961250 60.684250
O 1.840819 1.961250 68.531052
O 1.840819 1.961250 76.377853
O 1.840819 1.961250 84.224655
O 1.840819 1.961250 92.071457
O 1.840819 1.961250 99.918259
O 1.840819 1.961250 107.765060
O 1.840819 1.961250 115.611862
O 1.840819 1.961250 123.458649
O 1.840819 1.961250 131.305466
O 1.840819 1.961250 139.152267
O 1.840819 1.961250 146.999054
O 1.840819 1.961250 154.845856
O 1.840819 1.961250 162.692657
O 1.840819 1.961250 170.539459
O 1.840819 1.961250 178.386261
O 1.840819 1.961250 186.233047
O 1.840819 1.961250 194.079865
O 1.854158 5.883750 9.666802
O 1.854158 5.883750 17.513601
O 1.854158 5.883750 25.360403
O 1.854158 5.883750 33.207203
O 1.854158 5.883750 41.054001
O 1.854158 5.883750 48.900803
O 1.854158 5.883750 56.747601
O 1.854158 5.883750 64.594406
O 1.854158 5.883750 72.441208
O 1.854158 5.883750 80.288002
O 1.854158 5.883750 88.134811
O 1.854158 5.883750 95.981606
O 1.854158 5.883750 103.828415
O 1.854158 5.883750 111.675201
O 1.854158 5.883750 119.522011
O 1.854158 5.883750 127.368813
O 1.854158 5.883750 135.215591
O 1.854158 5.883750 143.062408
O 1.854158 5.883750 150.909210
O 1.854158 5.883750 158.755997
O 1.854158 5.883750 166.602798
O 1.854158 5.883750 174.449600
O 1.854158 5.883750 182.296402
O 1.854158 5.883750 190.143204
O 1.854158 5.883750 197.989990
O 2.082495 5.883750 5.987391
O 2.082495 5.883750 13.834190
O 2.082495 5.883750 21.680990
O 2.082495 5.883750 29.527792
O 2.082495 5.883750 37.374588
O 2.082495 5.883750 45.221390
O 2.082495 5.883750 53.068192
O 2.082495 5.883750 60.914989
O 2.082495 5.883750 68.761795
O 2.082495 5.883750 76.608589
O 2.082495 5.883750 84.455399
O 2.082495 5.883750 92.302193
O 2.082495 5.883750 100.148994
O 2.082495 5.883750 107.995789
O 2.082495 5.883750 115.842590
O 2.082495 5.883750 123.689400
O 2.082495 5.883750 131.536179
O 2.082495 5.883750 139.382996
O 2.082495 5.883750 147.229797
O 2.082495 5.883750 155.076599
O 2.082495 5.883750 162.923401
O 2.082495 5.883750 170.770203
O 2.082495 5.883750 178.617004
O 2.082495 5.883750 186.463806
O 2.082495 5.883750 194.310593
O 2.069156 1.961250 2.077241
O 2.069156 1.961250 9.924041
O 2.069156 1.961250 17.770842
O 2.069156 1.961250 25.617641
O 2.069156 1.961250 33.464443
O 2.069156 1.961250 41.311241
O 2.069156 1.961250 49.158043
O 2.069156 1.961250 57.004841
O 2.069156 1.961250 64.851646
O 2.069156 1.961250 72.698448
O 2.069156 1.961250 80.545242
O 2.069156 1.961250 88.392044
O 2.069156 1.961250 96.238846
O 2.069156 1.961250 104.085648
O 2.069156 1.961250 111.932449
O 2.069156 1.961250 119.779243
O 2.069156 1.961250 127.626045
O 2.069156 1.961250 135.472855
O 2.069156 1.961250 143.319641
O 2.069156 1.961250 151.166443
O 2.069156 1.961250 159.013245
O 2.069156 1.961250 166.860046
O 2.069156 1.961250 174.706848
O 2.069156 1.961250 182.553635
O 2.069156 1.961250 190.400452
O 2.075825 0.114537 7.838014
O 2.075825 0.114537 15.684814
O 2.075825 0.114537 23.531614
O 2.075825 0.114537 31.378414
O 2.075825 0.114537 39.225212
O 2.075825 0.114537 47.072014
O 2.075825 0.114537 54.918812
O 2.075825 0.114537 62.765617
O 2.075825 0.114537 70.612411
O 2.075825 0.114537 78.459213
O 2.075825 0.114537 86.306015
O 2.075825 0.114537 94.152817
O 2.075825 0.114537 101.999611
O 2.075825 0.114537 109.846413
O 2.075825 0.114537 117.693214
O 2.075825 0.114537 125.540009
O 2.075825 0.114537 133.386826
O 2.075825 0.114537 141.233627
O 2.075825 0.114537 149.080414
O 2.075825 0.114537 156.927216
O 2.075825 0.114537 164.774033
O 2.075825 0.114537 172.620819
O 2.075825 0.114537 180.467621
O 2.075825 0.114537 188.314423
O 2.075825 0.114537 196.161224
O 0.000392 7.730463 5.976256
O 0.000392 7.730463 13.823055
O 0.000392 7.730463 21.669855
O 0.000392 7.730463 29.516657
O 0.000392 7.730463 37.363457
O 0.000392 7.730463 45.210258
O 0.000392 7.730463 53.057056
O 0.000392 7.730463 60.903854
O 0.000392 7.730463 68.750656
O 0.000392 7.730463 76.597458
O 0.000392 7.730463 84.444260
O 0.000392 7.730463 92.291061
O 0.000392 7.730463 100.137856
O 0.000392 7.730463 107.984665
O 0.000392 7.730463 115.831451
O 0.000392 7.730463 123.678261
O 0.000392 7.730463 131.525055
O 0.000392 7.730463 139.371841
O 0.000392 7.730463 147.218658
O 0.000392 7.730463 155.065460
O 0.000392 7.730463 162.912247
O 0.000392 7.730463 170.759048
O 0.000392 7.730463 178.605850
O 0.000392 7.730463 186.452652
O 0.000392 7.730463 194.299454
O 1.847489 4.037037 3.906030
O 1.847489 4.037037 11.752830
O 1.847489 4.037037 19.599630
O 1.847489 4.037037 27.446428
O 1.847489 4.037037 35.293228
O 1.847489 4.037037 43.140030
O 1.847489 4.037037 50.986828
O 1.847489 4.037037 58.833630
O 1.847489 4.037037 66.680435
O 1.847489 4.037037 74.527229
O 1.847489 4.037037 82.374031
O 1.847489 4.037037 90.220833
O 1.847489 4.037037 98.067635
O 1.847489 4.037037 105.914429
O 1.847489 4.037037 113.761230
O 1.847489 4.037037 121.608025
O 1.847489 4.037037 129.454834
O 1.847489 4.037037 137.301636
O 1.847489 4.037037 145.148438
O 1.847489 4.037037 152.995239
O 1.847489 4.037037 160.842041
O 1.847489 4.037037 168.688843
O 1.847489 4.037037 176.535645
O 1.847489 4.037037 184.382446
O 1.847489 4.037037 192.229233
O 3.922922 0.114537 5.767788
O 3.922922 0.114537 13.614588
O 3.922922 0.114537 21.461386
O 3.922922 0.114537 29.308186
O 3.922922 0.114537 37.154987
O 3.922922 0.114537 45.001785
O 3.922922 0.114537 52.848587
O 3.922922 0.114537 60.695385
O 3.922922 0.114537 68.542198
O 3.922922 0.114537 76.388992
O 3.922922 0.114537 84.235794
O 3.922922 0.114537 92.082588
O 3.922922 0.114537 99.929398
O 3.922922 0.114537 107.776192
O 3.922922 0.114537 115.622993
O 3.922922 0.114537 123.469795
O 3.922922 0.114537 131.316589
O 3.922922 0.114537 139.163391
O 3.922922 0.114537 147.010193
O 3.922922 0.114537 154.856995
O 3.922922 0.114537 162.703796
O 3.922922 0.114537 170.550598
O 3.922922 0.114537 178.397385
O 3.922922 0.114537 186.244202
O 3.922922 0.114537 194.091003
O 3.922922 3.807963 5.767788
O 3.922922 3.807963 13.614588
O 3.922922 3.807963 21.461386
O 3.922922 3.807963 29.308186
O 3.922922 3.807963 37.154987
O 3.922922 3.807963 45.001785
O 3.922922 3.807963 52.848587
O 3.922922 3.807963 60.695385
O 3.922922 3.807963 68.542198
O 3.922922 3.807963 76.388992
O 3.922922 3.807963 84.235794
O 3.922922 3.807963 92.082588
O 3.922922 3.807963 99.929398
O 3.922922 3.807963 107.776192
O 3.922922 3.807963 115.622993
O 3.922922 3.807963 123.469795
O 3.922922 3.807963 131.316589
O 3.922922 3.807963 139.163391
O 3.922922 3.807963 147.010193
O 3.922922 3.807963 154.856995
O 3.922922 3.807963 162.703796
O 3.922922 3.807963 170.550598
O 3.922922 3.807963 178.397385
O 3.922922 3.807963 186.244202
O 3.922922 3.807963 194.091003
O 0.000392 4.037037 5.976256
O 0.000392 4.037037 13.823055
O 0.000392 4.037037 21.669855
O 0.000392 4.037037 29.516657
O 0.000392 4.037037 37.363457
O 0.000392 4.037037 45.210258
O 0.000392 4.037037 53.057056
O 0.000392 4.037037 60.903854
O 0.000392 4.037037 68.750656
O 0.000392 4.037037 76.597458
O 0.000392 4.037037 84.444260
O 0.000392 4.037037 92.291061
O 0.000392 4.037037 100.137856
O 0.000392 4.037037 107.984665
O 0.000392 4.037037 115.831451
O 0.000392 4.037037 123.678261
O 0.000392 4.037037 131.525055
O 0.000392 4.037037 139.371841
O 0.000392 4.037037 147.218658
O 0.000392 4.037037 155.065460
O 0.000392 4.037037 162.912247
O 0.000392 4.037037 170.759048
O 0.000392 4.037037 178.605850
O 0.000392 4.037037 186.452652
O 0.000392 4.037037 194.299454
O 1.847489 7.730463 3.906030
O 1.847489 7.730463 11.752830
O 1.847489 7.730463 19.599630
O 1.847489 7.730463 27.446428
O 1.847489 7.730463 35.293228
O 1.847489 7.730463 43.140030
O 1.847489 7.730463 50.986828
O 1.847489 7.730463 58.833630
O 1.847489 7.730463 66.680435
O 1.847489 7.730463 74.527229
O 1.847489 7.730463 82.374031
O 1.847489 7.730463 90.220833
O 1.847489 7.730463 98.067635
O 1.847489 7.730463 105.914429
O 1.847489 7.730463 113.761230
O 1.847489 7.730463 121.608025
O 1.847489 7.730463 129.454834
O 1.847489 7.730463 137.301636
O 1.847489 7.730463 145.148438
O 1.847489 7.730463 152.995239
O 1.847489 7.730463 160.842041
O 1.847489 7.730463 168.688843
O 1.847489 7.730463 176.535645
O 1.847489 7.730463 184.382446
O 1.847489 7.730463 192.229233
O 2.075825 3.807963 7.838014
O 2.075825 3.807963 15.684814
O 2.075825 3.807963 23.531614
O 2.075825 3.807963 31.378414
O 2.075825 3.807963 39.225212
O 2.075825 3.807963 47.072014
O 2.075825 3.807963 54.918812
O 2.075825 3.807963 62.765617
O 2.075825 3.807963 70.612411
O 2.075825 3.807963 78.459213
O 2.075825 3.807963 86.306015
O 2.075825 3.807963 94.152817
O 2.075825 3.807963 101.999611
O 2.075825 3.807963 109.846413
O 2.075825 3.807963 117.693214
O 2.075825 3.807963 125.540009
O 2.075825 3.807963 133.386826
O 2.075825 3.807963 141.233627
O 2.075825 3.807963 149.080414
O 2.075825 3.807963 156.927216
O 2.075825 3.807963 164.774033
O 2.075825 3.807963 172.620819
O 2.075825 3.807963 180.467621
O 2.075825 3.807963 188.314423
O 2.075825 3.807963 196.161224
Ru 1.961657 0.000000 1.948622
Ru 1.961657 0.000000 9.795422
Ru 1.961657 0.000000 17.642221
Ru 1.961657 0.000000 25.489021
Ru 1.961657 0.000000 33.335823
Ru 1.961657 0.000000 41.182621
Ru 1.961657 0.000000 49.029423
Ru 1.961657 0.000000 56.876225
Ru 1.961657 0.000000 64.723022
Ru 1.961657 0.000000 72.569824
Ru 1.961657 0.000000 80.416626
Ru 1.961657 0.000000 88.263420
Ru 1.961657 0.000000 96.110222
Ru 1.961657 0.000000 103.957016
Ru 1.961657 0.000000 111.803825
Ru 1.961657 0.000000 119.650627
Ru 1.961657 0.000000 127.497421
Ru 1.961657 0.000000 135.344223
Ru 1.961657 0.000000 143.191025
Ru 1.961657 0.000000 151.037827
Ru 1.961657 0.000000 158.884628
Ru 1.961657 0.000000 166.731415
Ru 1.961657 0.000000 174.578217
Ru 1.961657 0.000000 182.425018
Ru 1.961657 0.000000 190.271820
Ru 1.961657 0.000000 5.872022
Ru 1.961657 0.000000 13.718822
Ru 1.961657 0.000000 21.565622
Ru 1.961657 0.000000 29.412422
Ru 1.961657 0.000000 37.259220
Ru 1.961657 0.000000 45.106022
Ru 1.961657 0.000000 52.952816
Ru 1.961657 0.000000 60.799625
Ru 1.961657 0.000000 68.646423
Ru 1.961657 0.000000 76.493225
Ru 1.961657 0.000000 84.340019
Ru 1.961657 0.000000 92.186821
Ru 1.961657 0.000000 100.033623
Ru 1.961657 0.000000 107.880424
Ru 1.961657 0.000000 115.727219
Ru 1.961657 0.000000 123.574020
Ru 1.961657 0.000000 131.420822
Ru 1.961657 0.000000 139.267624
Ru 1.961657 0.000000 147.114426
Ru 1.961657 0.000000 154.961212
Ru 1.961657 0.000000 162.808014
Ru 1.961657 0.000000 170.654831
Ru 1.961657 0.000000 178.501617
Ru 1.961657 0.000000 186.348419
Ru 1.961657 0.000000 194.195221
Ru 1.961657 3.922500 1.948622
Ru 1.961657 3.922500 9.795422
Ru 1.961657 3.922500 17.642221
Ru 1.961657 3.922500 25.489021
Ru 1.961657 3.922500 33.335823
Ru 1.961657 3.922500 41.182621
Ru 1.961657 3.922500 49.029423
Ru 1.961657 3.922500 56.876225
Ru 1.961657 3.922500 64.723022
Ru 1.961657 3.922500 72.569824
Ru 1.961657 3.922500 80.416626
Ru 1.961657 3.922500 88.263420
Ru 1.961657 3.922500 96.110222
Ru 1.961657 3.922500 103.957016
Ru 1.961657 3.922500 111.803825
Ru 1.961657 3.922500 119.650627
Ru 1.961657 3.922500 127.497421
Ru 1.961657 3.922500 135.344223
Ru 1.961657 3.922500 143.191025
Ru 1.961657 3.922500 151.037827
Ru 1.961657 3.922500 158.884628
Ru 1.961657 3.922500 166.731415
Ru 1.961657 3.922500 174.578217
Ru 1.961657 3.922500 182.425018
Ru 1.961657 3.922500 190.271820
Ru 1.961657 3.922500 5.872022
Ru 1.961657 3.922500 13.718822
Ru 1.961657 3.922500 21.565622
Ru 1.961657 3.922500 29.412422
Ru 1.961657 3.922500 37.259220
Ru 1.961657 3.922500 45.106022
Ru 1.961657 3.922500 52.952816
Ru 1.961657 3.922500 60.799625
Ru 1.961657 3.922500 68.646423
Ru 1.961657 3.922500 76.493225
Ru 1.961657 3.922500 84.340019
Ru 1.961657 3.922500 92.186821
Ru 1.961657 3.922500 100.033623
Ru 1.961657 3.922500 107.880424
Ru 1.961657 3.922500 115.727219
Ru 1.961657 3.922500 123.574020
Ru 1.961657 3.922500 131.420822
Ru 1.961657 3.922500 139.267624
Ru 1.961657 3.922500 147.114426
Ru 1.961657 3.922500 154.961212
Ru 1.961657 3.922500 162.808014
Ru 1.961657 3.922500 170.654831
Ru 1.961657 3.922500 178.501617
Ru 1.961657 3.922500 186.348419
Ru 1.961657 3.922500 194.195221
Sr 0.019617 1.961250 7.801157
Sr 0.019617 1.961250 15.647957
Sr 0.019617 1.961250 23.494759
Sr 0.019617 1.961250 31.341558
Sr 0.019617 1.961250 39.188358
Sr 0.019617 1.961250 47.035156
Sr 0.019617 1.961250 54.881954
Sr 0.019617 1.961250 62.728760
Sr 0.019617 1.961250 70.575562
Sr 0.019617 1.961250 78.422363
Sr 0.019617 1.961250 86.269157
Sr 0.019617 1.961250 94.115959
Sr 0.019617 1.961250 101.962761
Sr 0.019617 1.961250 109.809563
Sr 0.019617 1.961250 117.656357
Sr 0.019617 1.961250 125.503159
Sr 0.019617 1.961250 133.349960
Sr 0.019617 1.961250 141.196762
Sr 0.019617 1.961250 149.043564
Sr 0.019617 1.961250 156.890350
Sr 0.019617 1.961250 164.737152
Sr 0.019617 1.961250 172.583969
Sr 0.019617 1.961250 180.430756
Sr 0.019617 1.961250 188.277557
Sr 0.019617 1.961250 196.124359
Sr 3.909190 5.883750 0.014030
Sr 3.909190 5.883750 7.860830
Sr 3.909190 5.883750 15.707630
Sr 3.909190 5.883750 23.554430
Sr 3.909190 5.883750 31.401230
Sr 3.909190 5.883750 39.248032
Sr 3.909190 5.883750 47.094830
Sr 3.909190 5.883750 54.941631
Sr 3.909190 5.883750 62.788429
Sr 3.909190 5.883750 70.635231
Sr 3.909190 5.883750 78.482033
Sr 3.909190 5.883750 86.328827
Sr 3.909190 5.883750 94.175629
Sr 3.909190 5.883750 102.022423
Sr 3.909190 5.883750 109.869232
Sr 3.909190 5.883750 117.716034
Sr 3.909190 5.883750 125.562828
Sr 3.909190 5.883750 133.409637
Sr 3.909190 5.883750 141.256439
Sr 3.909190 5.883750 149.103241
Sr 3.909190 5.883750 156.950043
Sr 3.909190 5.883750 164.796829
Sr 3.909190 5.883750 172.643631
Sr 3.909190 5.883750 180.490433
Sr 3.909190 5.883750 188.337234
Sr 3.903697 5.883750 3.942886
Sr 3.903697 5.883750 11.789686
Sr 3.903697 5.883750 19.636486
Sr 3.903697 5.883750 27.483286
Sr 3.903697 5.883750 35.330086
Sr 3.903697 5.883750 43.176884
Sr 3.903697 5.883750 51.023682
Sr 3.903697 5.883750 58.870487
Sr 3.903697 5.883750 66.717285
Sr 3.903697 5.883750 74.564095
Sr 3.903697 5.883750 82.410889
Sr 3.903697 5.883750 90.257690
Sr 3.903697 5.883750 98.104492
Sr 3.903697 5.883750 105.951294
Sr 3.903697 5.883750 113.798088
Sr 3.903697 5.883750 121.644890
Sr 3.903697 5.883750 129.491684
Sr 3.903697 5.883750 137.338486
Sr 3.903697 5.883750 145.185287
Sr 3.903697 5.883750 153.032074
Sr 3.903697 5.883750 160.878876
Sr 3.903697 5.883750 168.725693
Sr 3.903697 5.883750 176.572479
Sr 3.903697 5.883750 184.419281
Sr 3.903697 5.883750 192.266083
Sr 0.014124 1.961250 11.730014
Sr 0.014124 1.961250 19.576813
Sr 0.014124 1.961250 27.423613
Sr 0.014124 1.961250 35.270412
Sr 0.014124 1.961250 43.117214
Sr 0.014124 1.961250 50.964012
Sr 0.014124 1.961250 58.810814
Sr 0.014124 1.961250 66.657616
Sr 0.014124 1.961250 74.504417
Sr 0.014124 1.961250 82.351219
Sr 0.014124 1.961250 90.198013
Sr 0.014124 1.961250 98.044815
Sr 0.014124 1.961250 105.891609
Sr 0.014124 1.961250 113.738419
Sr 0.014124 1.961250 121.585220
Sr 0.014124 1.961250 129.432007
Sr 0.014124 1.961250 137.278824
Sr 0.014124 1.961250 145.125626
Sr 0.014124 1.961250 152.972427
Sr 0.014124 1.961250 160.819229
Sr 0.014124 1.961250 168.666016
Sr 0.014124 1.961250 176.512817
Sr 0.014124 1.961250 184.359619
Sr 0.014124 1.961250 192.206421
Sr 0.014124 1.961250 200.053223
