1000
new structure
O 1.840819 1.961250 5.756653
O 1.840819 1.961250 13.603453
O 1.840819 1.961250 21.450253
O 1.840819 1.961250 29.297052
O 1.840819 1.961250 37.143852
O 1.840819 1.961250 44.990650
O 1.840819 1.961250 52.837452
O 1.840819 1.961250 60.684250
O 1.840819 1.961250 68.531052
O 1.840819 1.961250 76.377853
O 1.840819 1.961250 84.224655
O 1.840819 1.961250 92.071457
O 1.840819 1.961250 99.918259
O 1.840819 1.961250 107.765060
O 1.840819 1.961250 115.611862
O 1.840819 1.961250 123.458649
O 1.840819 1.961250 131.305466
O 1.840819 1.961250 139.152267
O 1.840819 1.961250 146.999054
O 1.840819 1.961250 154.845856
O 1.840819 1.961250 162.692657
O 1.840819 1.961250 170.539459
O 1.840819 1.961250 178.386261
O 1.840819 1.961250 186.233047
O 1.840819 1.961250 194.079865
O 1.840819 1.961250 201.926666
O 1.840819 1.961250 209.773453
O 1.840819 1.961250 217.620255
O 1.840819 1.961250 225.467056
O 1.840819 1.961250 233.313858
O 1.840819 1.961250 241.160645
O 1.840819 1.961250 249.007462
O 1.840819 1.961250 256.854248
O 1.840819 1.961250 264.701050
O 1.840819 1.961250 272.547852
O 1.840819 1.961250 280.394653
O 1.840819 1.961250 288.241455
O 1.840819 1.961250 296.088257
O 1.840819 1.961250 303.935059
O 1.840819 1.961250 311.781860
O 1.840819 1.961250 319.628662
O 1.840819 1.961250 327.475464
O 1.840819 1.961250 335.322266
O 1.840819 1.961250 343.169067
O 1.840819 1.961250 351.015869
O 1.840819 1.961250 358.862640
O 1.840819 1.961250 366.709473
O 1.840819 1.961250 374.556274
O 1.840819 1.961250 382.403046
O 1.840819 1.961250 390.249878
O 1.854158 5.883750 9.666802
O 1.854158 5.883750 17.513601
O 1.854158 5.883750 25.360403
O 1.854158 5.883750 33.207203
O 1.854158 5.883750 41.054001
O 1.854158 5.883750 48.900803
O 1.854158 5.883750 56.747601
O 1.854158 5.883750 64.594406
O 1.854158 5.883750 72.441208
O 1.854158 5.883750 80.288002
O 1.854158 5.883750 88.134811
O 1.854158 5.883750 95.981606
O 1.854158 5.883750 103.828415
O 1.854158 5.883750 111.675201
O 1.854158 5.883750 119.522011
O 1.854158 5.883750 127.368813
O 1.854158 5.883750 135.215591
O 1.854158 5.883750 143.062408
O 1.854158 5.883750 150.909210
O 1.854158 5.883750 158.755997
O 1.854158 5.883750 166.602798
O 1.854158 5.883750 174.449600
O 1.854158 5.883750 182.296402
O 1.854158 5.883750 190.143204
O 1.854158 5.883750 197.989990
O 1.854158 5.883750 205.836792
O 1.854158 5.883750 213.683594
O 1.854158 5.883750 221.530411
O 1.854158 5.883750 229.377197
O 1.854158 5.883750 237.223999
O 1.854158 5.883750 245.070801
O 1.854158 5.883750 252.917603
O 1.854158 5.883750 260.764404
O 1.854158 5.883750 268.611237
O 1.854158 5.883750 276.458008
O 1.854158 5.883750 284.304810
O 1.854158 5.883750 292.151611
O 1.854158 5.883750 299.998413
O 1.854158 5.883750 307.845215
O 1.854158 5.883750 315.692017
O 1.854158 5.883750 323.538818
O 1.854158 5.883750 331.385620
O 1.854158 5.883750 339.232391
O 1.854158 5.883750 347.079224
O 1.854158 5.883750 354.926025
O 1.854158 5.883750 362.772797
O 1.854158 5.883750 370.619629
O 1.854158 5.883750 378.466400
O 1.854158 5.883750 386.313202
O 1.854158 5.883750 394.160034
O 2.082495 5.883750 5.987391
O 2.082495 5.883750 13.834190
O 2.082495 5.883750 21.680990
O 2.082495 5.883750 29.527792
O 2.082495 5.883750 37.374588
O 2.082495 5.883750 45.221390
O 2.082495 5.883750 53.068192
O 2.082495 5.883750 60.914989
O 2.082495 5.883750 68.761795
O 2.082495 5.883750 76.608589
O 2.082495 5.883750 84.455399
O 2.082495 5.883750 92.302193
O 2.082495 5.883750 100.148994
O 2.082495 5.883750 107.995789
O 2.082495 5.883750 115.842590
O 2.082495 5.883750 123.689400
O 2.082495 5.883750 131.536179
O 2.082495 5.883750 139.382996
O 2.082495 5.883750 147.229797
O 2.082495 5.883750 155.076599
O 2.082495 5.883750 162.923401
O 2.082495 5.883750 170.770203
O 2.082495 5.883750 178.617004
O 2.082495 5.883750 186.463806
O 2.082495 5.883750 194.310593
O 2.082495 5.883750 202.157394
O 2.082495 5.883750 210.004211
O 2.082495 5.883750 217.850998
O 2.082495 5.883750 225.697784
O 2.082495 5.883750 233.544601
O 2.082495 5.883750 241.391403
O 2.082495 5.883750 249.238190
O 2.082495 5.883750 257.084991
O 2.082495 5.883750 264.931793
O 2.082495 5.883750 272.778564
O 2.082495 5.883750 280.625397
O 2.082495 5.883750 288.472198
O 2.082495 5.883750 296.318970
O 2.082495 5.883750 304.165802
O 2.082495 5.883750 312.012573
O 2.082495 5.883750 319.859375
O 2.082495 5.883750 327.706207
O 2.082495 5.883750 335.552979
O 2.082495 5.883750 343.399780
O 2.082495 5.883750 351.246582
O 2.082495 5.883750 359.093384
O 2.082495 5.883750 366.940186
O 2.082495 5.883750 374.786987
O 2.082495 5.883750 382.633789
O 2.082495 5.883750 390.480591
O 2.069156 1.961250 2.077241
O 2.069156 1.961250 9.924041
O 2.069156 1.961250 17.770842
O 2.069156 1.961250 25.617641
O 2.069156 1.961250 33.464443
O 2.069156 1.961250 41.311241
O 2.069156 1.961250 49.158043
O 2.069156 1.961250 57.004841
O 2.069156 1.961250 64.851646
O 2.069156 1.961250 72.698448
O 2.069156 1.961250 80.545242
O 2.069156 1.961250 88.392044
O 2.069156 1.961250 96.238846
O 2.069156 1.961250 104.085648
O 2.069156 1.961250 111.932449
O 2.069156 1.961250 119.779243
O 2.069156 1.961250 127.626045
O 2.069156 1.961250 135.472855
O 2.069156 1.961250 143.319641
O 2.069156 1.961250 151.166443
O 2.069156 1.961250 159.013245
O 2.069156 1.961250 166.860046
O 2.069156 1.961250 174.706848
O 2.069156 1.961250 182.553635
O 2.069156 1.961250 190.400452
O 2.069156 1.961250 198.247238
O 2.069156 1.961250 206.094055
O 2.069156 1.961250 213.940842
O 2.069156 1.961250 221.787643
O 2.069156 1.961250 229.634460
O 2.069156 1.961250 237.481247
O 2.069156 1.961250 245.328033
O 2.069156 1.961250 253.174850
O 2.069156 1.961250 261.021637
O 2.069156 1.961250 268.868439
O 2.069156 1.961250 276.715240
O 2.069156 1.961250 284.562042
O 2.069156 1.961250 292.408813
O 2.069156 1.961250 300.255615
O 2.069156 1.961250 308.102448
O 2.069156 1.961250 315.949219
O 2.069156 1.961250 323.796021
O 2.069156 1.961250 331.642822
O 2.069156 1.961250 339.489624
O 2.069156 1.961250 347.336426
O 2.069156 1.961250 355.183228
O 2.069156 1.961250 363.030029
O 2.069156 1.961250 370.876831
O 2.069156 1.961250 378.723633
O 2.069156 1.961250 386.570435
O 2.075825 0.114537 7.838014
O 2.075825 0.114537 15.684814
O 2.075825 0.114537 23.531614
O 2.075825 0.114537 31.378414
O 2.075825 0.114537 39.225212
O 2.075825 0.114537 47.072014
O 2.075825 0.114537 54.918812
O 2.075825 0.114537 62.765617
O 2.075825 0.114537 70.612411
O 2.075825 0.114537 78.459213
O 2.075825 0.114537 86.306015
O 2.075825 0.114537 94.152817
O 2.075825 0.114537 101.999611
O 2.075825 0.114537 109.846413
O 2.075825 0.114537 117.693214
O 2.075825 0.114537 125.540009
O 2.075825 0.114537 133.386826
O 2.075825 0.114537 141.233627
O 2.075825 0.114537 149.080414
O 2.075825 0.114537 156.927216
O 2.075825 0.114537 164.774033
O 2.075825 0.114537 172.620819
O 2.075825 0.114537 180.467621
O 2.075825 0.114537 188.314423
O 2.075825 0.114537 196.161224
O 2.075825 0.114537 204.008011
O 2.075825 0.114537 211.854828
O 2.075825 0.114537 219.701614
O 2.075825 0.114537 227.548416
O 2.075825 0.114537 235.395233
O 2.075825 0.114537 243.242020
O 2.075825 0.114537 251.088806
O 2.075825 0.114537 258.935608
O 2.075825 0.114537 266.782410
O 2.075825 0.114537 274.629211
O 2.075825 0.114537 282.476013
O 2.075825 0.114537 290.322815
O 2.075825 0.114537 298.169586
O 2.075825 0.114537 306.016418
O 2.075825 0.114537 313.863220
O 2.075825 0.114537 321.709991
O 2.075825 0.114537 329.556824
O 2.075825 0.114537 337.403595
O 2.075825 0.114537 345.250397
O 2.075825 0.114537 353.097198
O 2.075825 0.114537 360.944000
O 2.075825 0.114537 368.790802
O 2.075825 0.114537 376.637604
O 2.075825 0.114537 384.484406
O 2.075825 0.114537 392.331207
O 0.000392 7.730463 5.976256
O 0.000392 7.730463 13.823055
O 0.000392 7.730463 21.669855
O 0.000392 7.730463 29.516657
O 0.000392 7.730463 37.363457
O 0.000392 7.730463 45.210258
O 0.000392 7.730463 53.057056
O 0.000392 7.730463 60.903854
O 0.000392 7.730463 68.750656
O 0.000392 7.730463 76.597458
O 0.000392 7.730463 84.444260
O 0.000392 7.730463 92.291061
O 0.000392 7.730463 100.137856
O 0.000392 7.730463 107.984665
O 0.000392 7.730463 115.831451
O 0.000392 7.730463 123.678261
O 0.000392 7.730463 131.525055
O 0.000392 7.730463 139.371841
O 0.000392 7.730463 147.218658
O 0.000392 7.730463 155.065460
O 0.000392 7.730463 162.912247
O 0.000392 7.730463 170.759048
O 0.000392 7.730463 178.605850
O 0.000392 7.730463 186.452652
O 0.000392 7.730463 194.299454
O 0.000392 7.730463 202.146240
O 0.000392 7.730463 209.993057
O 0.000392 7.730463 217.839859
O 0.000392 7.730463 225.686646
O 0.000392 7.730463 233.533463
O 0.000392 7.730463 241.380249
O 0.000392 7.730463 249.227051
O 0.000392 7.730463 257.073822
O 0.000392 7.730463 264.920654
O 0.000392 7.730463 272.767456
O 0.000392 7.730463 280.614227
O 0.000392 7.730463 288.461060
O 0.000392 7.730463 296.307861
O 0.000392 7.730463 304.154633
O 0.000392 7.730463 312.001465
O 0.000392 7.730463 319.848236
O 0.000392 7.730463 327.695038
O 0.000392 7.730463 335.541870
O 0.000392 7.730463 343.388641
O 0.000392 7.730463 351.235443
O 0.000392 7.730463 359.082245
O 0.000392 7.730463 366.929047
O 0.000392 7.730463 374.775848
O 0.000392 7.730463 382.622650
O 0.000392 7.730463 390.469452
O 1.847489 4.037037 3.906030
O 1.847489 4.037037 11.752830
O 1.847489 4.037037 19.599630
O 1.847489 4.037037 27.446428
O 1.847489 4.037037 35.293228
O 1.847489 4.037037 43.140030
O 1.847489 4.037037 50.986828
O 1.847489 4.037037 58.833630
O 1.847489 4.037037 66.680435
O 1.847489 4.037037 74.527229
O 1.847489 4.037037 82.374031
O 1.847489 4.037037 90.220833
O 1.847489 4.037037 98.067635
O 1.847489 4.037037 105.914429
O 1.847489 4.037037 113.761230
O 1.847489 4.037037 121.608025
O 1.847489 4.037037 129.454834
O 1.847489 4.037037 137.301636
O 1.847489 4.037037 145.148438
O 1.847489 4.037037 152.995239
O 1.847489 4.037037 160.842041
O 1.847489 4.037037 168.688843
O 1.847489 4.037037 176.535645
O 1.847489 4.037037 184.382446
O 1.847489 4.037037 192.229233
O 1.847489 4.037037 200.076035
O 1.847489 4.037037 207.922836
O 1.847489 4.037037 215.769653
O 1.847489 4.037037 223.616440
O 1.847489 4.037037 231.463226
O 1.847489 4.037037 239.310043
O 1.847489 4.037037 247.156845
O 1.847489 4.037037 255.003632
O 1.847489 4.037037 262.850433
O 1.847489 4.037037 270.697235
O 1.847489 4.037037 278.544037
O 1.847489 4.037037 286.390839
O 1.847489 4.037037 294.237640
O 1.847489 4.037037 302.084442
O 1.847489 4.037037 309.931213
O 1.847489 4.037037 317.778046
O 1.847489 4.037037 325.624847
O 1.847489 4.037037 333.471619
O 1.847489 4.037037 341.318451
O 1.847489 4.037037 349.165222
O 1.847489 4.037037 357.012024
O 1.847489 4.037037 364.858856
O 1.847489 4.037037 372.705627
O 1.847489 4.037037 380.552429
O 1.847489 4.037037 388.399231
O 3.922922 0.114537 5.767788
O 3.922922 0.114537 13.614588
O 3.922922 0.114537 21.461386
O 3.922922 0.114537 29.308186
O 3.922922 0.114537 37.154987
O 3.922922 0.114537 45.001785
O 3.922922 0.114537 52.848587
O 3.922922 0.114537 60.695385
O 3.922922 0.114537 68.542198
O 3.922922 0.114537 76.388992
O 3.922922 0.114537 84.235794
O 3.922922 0.114537 92.082588
O 3.922922 0.114537 99.929398
O 3.922922 0.114537 107.776192
O 3.922922 0.114537 115.622993
O 3.922922 0.114537 123.469795
O 3.922922 0.114537 131.316589
O 3.922922 0.114537 139.163391
O 3.922922 0.114537 147.010193
O 3.922922 0.114537 154.856995
O 3.922922 0.114537 162.703796
O 3.922922 0.114537 170.550598
O 3.922922 0.114537 178.397385
O 3.922922 0.114537 186.244202
O 3.922922 0.114537 194.091003
O 3.922922 0.114537 201.937790
O 3.922922 0.114537 209.784576
O 3.922922 0.114537 217.631393
O 3.922922 0.114537 225.478195
O 3.922922 0.114537 233.324982
O 3.922922 0.114537 241.171799
O 3.922922 0.114537 249.018585
O 3.922922 0.114537 256.865387
O 3.922922 0.114537 264.712189
O 3.922922 0.114537 272.558990
O 3.922922 0.114537 280.405792
O 3.922922 0.114537 288.252594
O 3.922922 0.114537 296.099396
O 3.922922 0.114537 303.946198
O 3.922922 0.114537 311.792999
O 3.922922 0.114537 319.639801
O 3.922922 0.114537 327.486572
O 3.922922 0.114537 335.333405
O 3.922922 0.114537 343.180206
O 3.922922 0.114537 351.026978
O 3.922922 0.114537 358.873779
O 3.922922 0.114537 366.720581
O 3.922922 0.114537 374.567383
O 3.922922 0.114537 382.414185
O 3.922922 0.114537 390.260986
O 3.922922 3.807963 5.767788
O 3.922922 3.807963 13.614588
O 3.922922 3.807963 21.461386
O 3.922922 3.807963 29.308186
O 3.922922 3.807963 37.154987
O 3.922922 3.807963 45.001785
O 3.922922 3.807963 52.848587
O 3.922922 3.807963 60.695385
O 3.922922 3.807963 68.542198
O 3.922922 3.807963 76.388992
O 3.922922 3.807963 84.235794
O 3.922922 3.807963 92.082588
O 3.922922 3.807963 99.929398
O 3.922922 3.807963 107.776192
O 3.922922 3.807963 115.622993
O 3.922922 3.807963 123.469795
O 3.922922 3.807963 131.316589
O 3.922922 3.807963 139.163391
O 3.922922 3.807963 147.010193
O 3.922922 3.807963 154.856995
O 3.922922 3.807963 162.703796
O 3.922922 3.807963 170.550598
O 3.922922 3.807963 178.397385
O 3.922922 3.807963 186.244202
O 3.922922 3.807963 194.091003
O 3.922922 3.807963 201.937790
O 3.922922 3.807963 209.784576
O 3.922922 3.807963 217.631393
O 3.922922 3.807963 225.478195
O 3.922922 3.807963 233.324982
O 3.922922 3.807963 241.171799
O 3.922922 3.807963 249.018585
O 3.922922 3.807963 256.865387
O 3.922922 3.807963 264.712189
O 3.922922 3.807963 272.558990
O 3.922922 3.807963 280.405792
O 3.922922 3.807963 288.252594
O 3.922922 3.807963 296.099396
O 3.922922 3.807963 303.946198
O 3.922922 3.807963 311.792999
O 3.922922 3.807963 319.639801
O 3.922922 3.807963 327.486572
O 3.922922 3.807963 335.333405
O 3.922922 3.807963 343.180206
O 3.922922 3.807963 351.026978
O 3.922922 3.807963 358.873779
O 3.922922 3.807963 366.720581
O 3.922922 3.807963 374.567383
O 3.922922 3.807963 382.414185
O 3.922922 3.807963 390.260986
O 0.000392 4.037037 5.976256
O 0.000392 4.037037 13.823055
O 0.000392 4.037037 21.669855
O 0.000392 4.037037 29.516657
O 0.000392 4.037037 37.363457
O 0.000392 4.037037 45.210258
O 0.000392 4.037037 53.057056
O 0.000392 4.037037 60.903854
O 0.000392 4.037037 68.750656
O 0.000392 4.037037 76.597458
O 0.000392 4.037037 84.444260
O 0.000392 4.037037 92.291061
O 0.000392 4.037037 100.137856
O 0.000392 4.037037 107.984665
O 0.000392 4.037037 115.831451
O 0.000392 4.037037 123.678261
O 0.000392 4.037037 131.525055
O 0.000392 4.037037 139.371841
O 0.000392 4.037037 147.218658
O 0.000392 4.037037 155.065460
O 0.000392 4.037037 162.912247
O 0.000392 4.037037 170.759048
O 0.000392 4.037037 178.605850
O 0.000392 4.037037 186.452652
O 0.000392 4.037037 194.299454
O 0.000392 4.037037 202.146240
O 0.000392 4.037037 209.993057
O 0.000392 4.037037 217.839859
O 0.000392 4.037037 225.686646
O 0.000392 4.037037 233.533463
O 0.000392 4.037037 241.380249
O 0.000392 4.037037 249.227051
O 0.000392 4.037037 257.073822
O 0.000392 4.037037 264.920654
O 0.000392 4.037037 272.767456
O 0.000392 4.037037 280.614227
O 0.000392 4.037037 288.461060
O 0.000392 4.037037 296.307861
O 0.000392 4.037037 304.154633
O 0.000392 4.037037 312.001465
O 0.000392 4.037037 319.848236
O 0.000392 4.037037 327.695038
O 0.000392 4.037037 335.541870
O 0.000392 4.037037 343.388641
O 0.000392 4.037037 351.235443
O 0.000392 4.037037 359.082245
O 0.000392 4.037037 366.929047
O 0.000392 4.037037 374.775848
O 0.000392 4.037037 382.622650
O 0.000392 4.037037 390.469452
O 1.847489 7.730463 3.906030
O 1.847489 7.730463 11.752830
O 1.847489 7.730463 19.599630
O 1.847489 7.730463 27.446428
O 1.847489 7.730463 35.293228
O 1.847489 7.730463 43.140030
O 1.847489 7.730463 50.986828
O 1.847489 7.730463 58.833630
O 1.847489 7.730463 66.680435
O 1.847489 7.730463 74.527229
O 1.847489 7.730463 82.374031
O 1.847489 7.730463 90.220833
O 1.847489 7.730463 98.067635
O 1.847489 7.730463 105.914429
O 1.847489 7.730463 113.761230
O 1.847489 7.730463 121.608025
O 1.847489 7.730463 129.454834
O 1.847489 7.730463 137.301636
O 1.847489 7.730463 145.148438
O 1.847489 7.730463 152.995239
O 1.847489 7.730463 160.842041
O 1.847489 7.730463 168.688843
O 1.847489 7.730463 176.535645
O 1.847489 7.730463 184.382446
O 1.847489 7.730463 192.229233
O 1.847489 7.730463 200.076035
O 1.847489 7.730463 207.922836
O 1.847489 7.730463 215.769653
O 1.847489 7.730463 223.616440
O 1.847489 7.730463 231.463226
O 1.847489 7.730463 239.310043
O 1.847489 7.730463 247.156845
O 1.847489 7.730463 255.003632
O 1.847489 7.730463 262.850433
O 1.847489 7.730463 270.697235
O 1.847489 7.730463 278.544037
O 1.847489 7.730463 286.390839
O 1.847489 7.730463 294.237640
O 1.847489 7.730463 302.084442
O 1.847489 7.730463 309.931213
O 1.847489 7.730463 317.778046
O 1.847489 7.730463 325.624847
O 1.847489 7.730463 333.471619
O 1.847489 7.730463 341.318451
O 1.847489 7.730463 349.165222
O 1.847489 7.730463 357.012024
O 1.847489 7.730463 364.858856
O 1.847489 7.730463 372.705627
O 1.847489 7.730463 380.552429
O 1.847489 7.730463 388.399231
O 2.075825 3.807963 7.838014
O 2.075825 3.807963 15.684814
O 2.075825 3.807963 23.531614
O 2.075825 3.807963 31.378414
O 2.075825 3.807963 39.225212
O 2.075825 3.807963 47.072014
O 2.075825 3.807963 54.918812
O 2.075825 3.807963 62.765617
O 2.075825 3.807963 70.612411
O 2.075825 3.807963 78.459213
O 2.075825 3.807963 86.306015
O 2.075825 3.807963 94.152817
O 2.075825 3.807963 101.999611
O 2.075825 3.807963 109.846413
O 2.075825 3.807963 117.693214
O 2.075825 3.807963 125.540009
O 2.075825 3.807963 133.386826
O 2.075825 3.807963 141.233627
O 2.075825 3.807963 149.080414
O 2.075825 3.807963 156.927216
O 2.075825 3.807963 164.774033
O 2.075825 3.807963 172.620819
O 2.075825 3.807963 180.467621
O 2.075825 3.807963 188.314423
O 2.075825 3.807963 196.161224
O 2.075825 3.807963 204.008011
O 2.075825 3.807963 211.854828
O 2.075825 3.807963 219.701614
O 2.075825 3.807963 227.548416
O 2.075825 3.807963 235.395233
O 2.075825 3.807963 243.242020
O 2.075825 3.807963 251.088806
O 2.075825 3.807963 258.935608
O 2.075825 3.807963 266.782410
O 2.075825 3.807963 274.629211
O 2.075825 3.807963 282.476013
O 2.075825 3.807963 290.322815
O 2.075825 3.807963 298.169586
O 2.075825 3.807963 306.016418
O 2.075825 3.807963 313.863220
O 2.075825 3.807963 321.709991
O 2.075825 3.807963 329.556824
O 2.075825 3.807963 337.403595
O 2.075825 3.807963 345.250397
O 2.075825 3.807963 353.097198
O 2.075825 3.807963 360.944000
O 2.075825 3.807963 368.790802
O 2.075825 3.807963 376.637604
O 2.075825 3.807963 384.484406
O 2.075825 3.807963 392.331207
Ru 1.961657 0.000000 1.948622
Ru 1.961657 0.000000 9.795422
Ru 1.961657 0.000000 17.642221
Ru 1.961657 0.000000 25.489021
Ru 1.961657 0.000000 33.335823
Ru 1.961657 0.000000 41.182621
Ru 1.961657 0.000000 49.029423
Ru 1.961657 0.000000 56.876225
Ru 1.961657 0.000000 64.723022
Ru 1.961657 0.000000 72.569824
Ru 1.961657 0.000000 80.416626
Ru 1.961657 0.000000 88.263420
Ru 1.961657 0.000000 96.110222
Ru 1.961657 0.000000 103.957016
Ru 1.961657 0.000000 111.803825
Ru 1.961657 0.000000 119.650627
Ru 1.961657 0.000000 127.497421
Ru 1.961657 0.000000 135.344223
Ru 1.961657 0.000000 143.191025
Ru 1.961657 0.000000 151.037827
Ru 1.961657 0.000000 158.884628
Ru 1.961657 0.000000 166.731415
Ru 1.961657 0.000000 174.578217
Ru 1.961657 0.000000 182.425018
Ru 1.961657 0.000000 190.271820
Ru 1.961657 0.000000 198.118622
Ru 1.961657 0.000000 205.965408
Ru 1.961657 0.000000 213.812225
Ru 1.961657 0.000000 221.659027
Ru 1.961657 0.000000 229.505814
Ru 1.961657 0.000000 237.352631
Ru 1.961657 0.000000 245.199417
Ru 1.961657 0.000000 253.046219
Ru 1.961657 0.000000 260.893036
Ru 1.961657 0.000000 268.739838
Ru 1.961657 0.000000 276.586639
Ru 1.961657 0.000000 284.433441
Ru 1.961657 0.000000 292.280243
Ru 1.961657 0.000000 300.127045
Ru 1.961657 0.000000 307.973816
Ru 1.961657 0.000000 315.820648
Ru 1.961657 0.000000 323.667419
Ru 1.961657 0.000000 331.514221
Ru 1.961657 0.000000 339.361053
Ru 1.961657 0.000000 347.207825
Ru 1.961657 0.000000 355.054626
Ru 1.961657 0.000000 362.901428
Ru 1.961657 0.000000 370.748230
Ru 1.961657 0.000000 378.595032
Ru 1.961657 0.000000 386.441833
Ru 1.961657 0.000000 5.872022
Ru 1.961657 0.000000 13.718822
Ru 1.961657 0.000000 21.565622
Ru 1.961657 0.000000 29.412422
Ru 1.961657 0.000000 37.259220
Ru 1.961657 0.000000 45.106022
Ru 1.961657 0.000000 52.952816
Ru 1.961657 0.000000 60.799625
Ru 1.961657 0.000000 68.646423
Ru 1.961657 0.000000 76.493225
Ru 1.961657 0.000000 84.340019
Ru 1.961657 0.000000 92.186821
Ru 1.961657 0.000000 100.033623
Ru 1.961657 0.000000 107.880424
Ru 1.961657 0.000000 115.727219
Ru 1.961657 0.000000 123.574020
Ru 1.961657 0.000000 131.420822
Ru 1.961657 0.000000 139.267624
Ru 1.961657 0.000000 147.114426
Ru 1.961657 0.000000 154.961212
Ru 1.961657 0.000000 162.808014
Ru 1.961657 0.000000 170.654831
Ru 1.961657 0.000000 178.501617
Ru 1.961657 0.000000 186.348419
Ru 1.961657 0.000000 194.195221
Ru 1.961657 0.000000 202.042023
Ru 1.961657 0.000000 209.888809
Ru 1.961657 0.000000 217.735626
Ru 1.961657 0.000000 225.582413
Ru 1.961657 0.000000 233.429214
Ru 1.961657 0.000000 241.276031
Ru 1.961657 0.000000 249.122818
Ru 1.961657 0.000000 256.969604
Ru 1.961657 0.000000 264.816437
Ru 1.961657 0.000000 272.663239
Ru 1.961657 0.000000 280.510040
Ru 1.961657 0.000000 288.356842
Ru 1.961657 0.000000 296.203644
Ru 1.961657 0.000000 304.050415
Ru 1.961657 0.000000 311.897247
Ru 1.961657 0.000000 319.744049
Ru 1.961657 0.000000 327.590820
Ru 1.961657 0.000000 335.437653
Ru 1.961657 0.000000 343.284424
Ru 1.961657 0.000000 351.131226
Ru 1.961657 0.000000 358.978058
Ru 1.961657 0.000000 366.824829
Ru 1.961657 0.000000 374.671631
Ru 1.961657 0.000000 382.518433
Ru 1.961657 0.000000 390.365234
Ru 1.961657 3.922500 1.948622
Ru 1.961657 3.922500 9.795422
Ru 1.961657 3.922500 17.642221
Ru 1.961657 3.922500 25.489021
Ru 1.961657 3.922500 33.335823
Ru 1.961657 3.922500 41.182621
Ru 1.961657 3.922500 49.029423
Ru 1.961657 3.922500 56.876225
Ru 1.961657 3.922500 64.723022
Ru 1.961657 3.922500 72.569824
Ru 1.961657 3.922500 80.416626
Ru 1.961657 3.922500 88.263420
Ru 1.961657 3.922500 96.110222
Ru 1.961657 3.922500 103.957016
Ru 1.961657 3.922500 111.803825
Ru 1.961657 3.922500 119.650627
Ru 1.961657 3.922500 127.497421
Ru 1.961657 3.922500 135.344223
Ru 1.961657 3.922500 143.191025
Ru 1.961657 3.922500 151.037827
Ru 1.961657 3.922500 158.884628
Ru 1.961657 3.922500 166.731415
Ru 1.961657 3.922500 174.578217
Ru 1.961657 3.922500 182.425018
Ru 1.961657 3.922500 190.271820
Ru 1.961657 3.922500 198.118622
Ru 1.961657 3.922500 205.965408
Ru 1.961657 3.922500 213.812225
Ru 1.961657 3.922500 221.659027
Ru 1.961657 3.922500 229.505814
Ru 1.961657 3.922500 237.352631
Ru 1.961657 3.922500 245.199417
Ru 1.961657 3.922500 253.046219
Ru 1.961657 3.922500 260.893036
Ru 1.961657 3.922500 268.739838
Ru 1.961657 3.922500 276.586639
Ru 1.961657 3.922500 284.433441
Ru 1.961657 3.922500 292.280243
Ru 1.961657 3.922500 300.127045
Ru 1.961657 3.922500 307.973816
Ru 1.961657 3.922500 315.820648
Ru 1.961657 3.922500 323.667419
Ru 1.961657 3.922500 331.514221
Ru 1.961657 3.922500 339.361053
Ru 1.961657 3.922500 347.207825
Ru 1.961657 3.922500 355.054626
Ru 1.961657 3.922500 362.901428
Ru 1.961657 3.922500 370.748230
Ru 1.961657 3.922500 378.595032
Ru 1.961657 3.922500 386.441833
Ru 1.961657 3.922500 5.872022
Ru 1.961657 3.922500 13.718822
Ru 1.961657 3.922500 21.565622
Ru 1.961657 3.922500 29.412422
Ru 1.961657 3.922500 37.259220
Ru 1.961657 3.922500 45.106022
Ru 1.961657 3.922500 52.952816
Ru 1.961657 3.922500 60.799625
Ru 1.961657 3.922500 68.646423
Ru 1.961657 3.922500 76.493225
Ru 1.961657 3.922500 84.340019
Ru 1.961657 3.922500 92.186821
Ru 1.961657 3.922500 100.033623
Ru 1.961657 3.922500 107.880424
Ru 1.961657 3.922500 115.727219
Ru 1.961657 3.922500 123.574020
Ru 1.961657 3.922500 131.420822
Ru 1.961657 3.922500 139.267624
Ru 1.961657 3.922500 147.114426
Ru 1.961657 3.922500 154.961212
Ru 1.961657 3.922500 162.808014
Ru 1.961657 3.922500 170.654831
Ru 1.961657 3.922500 178.501617
Ru 1.961657 3.922500 186.348419
Ru 1.961657 3.922500 194.195221
Ru 1.961657 3.922500 202.042023
Ru 1.961657 3.922500 209.888809
Ru 1.961657 3.922500 217.735626
Ru 1.961657 3.922500 225.582413
Ru 1.961657 3.922500 233.429214
Ru 1.961657 3.922500 241.276031
Ru 1.961657 3.922500 249.122818
Ru 1.961657 3.922500 256.969604
Ru 1.961657 3.922500 264.816437
Ru 1.961657 3.922500 272.663239
Ru 1.961657 3.922500 280.510040
Ru 1.961657 3.922500 288.356842
Ru 1.961657 3.922500 296.203644
Ru 1.961657 3.922500 304.050415
Ru 1.961657 3.922500 311.897247
Ru 1.961657 3.922500 319.744049
Ru 1.961657 3.922500 327.590820
Ru 1.961657 3.922500 335.437653
Ru 1.961657 3.922500 343.284424
Ru 1.961657 3.922500 351.131226
Ru 1.961657 3.922500 358.978058
Ru 1.961657 3.922500 366.824829
Ru 1.961657 3.922500 374.671631
Ru 1.961657 3.922500 382.518433
Ru 1.961657 3.922500 390.365234
Sr 0.019617 1.961250 7.801157
Sr 0.019617 1.961250 15.647957
Sr 0.019617 1.961250 23.494759
Sr 0.019617 1.961250 31.341558
Sr 0.019617 1.961250 39.188358
Sr 0.019617 1.961250 47.035156
Sr 0.019617 1.961250 54.881954
Sr 0.019617 1.961250 62.728760
Sr 0.019617 1.961250 70.575562
Sr 0.019617 1.961250 78.422363
Sr 0.019617 1.961250 86.269157
Sr 0.019617 1.961250 94.115959
Sr 0.019617 1.961250 101.962761
Sr 0.019617 1.961250 109.809563
Sr 0.019617 1.961250 117.656357
Sr 0.019617 1.961250 125.503159
Sr 0.019617 1.961250 133.349960
Sr 0.019617 1.961250 141.196762
Sr 0.019617 1.961250 149.043564
Sr 0.019617 1.961250 156.890350
Sr 0.019617 1.961250 164.737152
Sr 0.019617 1.961250 172.583969
Sr 0.019617 1.961250 180.430756
Sr 0.019617 1.961250 188.277557
Sr 0.019617 1.961250 196.124359
Sr 0.019617 1.961250 203.971161
Sr 0.019617 1.961250 211.817947
Sr 0.019617 1.961250 219.664764
Sr 0.019617 1.961250 227.511551
Sr 0.019617 1.961250 235.358353
Sr 0.019617 1.961250 243.205170
Sr 0.019617 1.961250 251.051956
Sr 0.019617 1.961250 258.898743
Sr 0.019617 1.961250 266.745544
Sr 0.019617 1.961250 274.592346
Sr 0.019617 1.961250 282.439148
Sr 0.019617 1.961250 290.285950
Sr 0.019617 1.961250 298.132751
Sr 0.019617 1.961250 305.979523
Sr 0.019617 1.961250 313.826355
Sr 0.019617 1.961250 321.673157
Sr 0.019617 1.961250 329.519928
Sr 0.019617 1.961250 337.366760
Sr 0.019617 1.961250 345.213531
Sr 0.019617 1.961250 353.060333
Sr 0.019617 1.961250 360.907166
Sr 0.019617 1.961250 368.753937
Sr 0.019617 1.961250 376.600739
Sr 0.019617 1.961250 384.447540
Sr 0.019617 1.961250 392.294342
Sr 3.909190 5.883750 0.014030
Sr 3.909190 5.883750 7.860830
Sr 3.909190 5.883750 15.707630
Sr 3.909190 5.883750 23.554430
Sr 3.909190 5.883750 31.401230
Sr 3.909190 5.883750 39.248032
Sr 3.909190 5.883750 47.094830
Sr 3.909190 5.883750 54.941631
Sr 3.909190 5.883750 62.788429
Sr 3.909190 5.883750 70.635231
Sr 3.909190 5.883750 78.482033
Sr 3.909190 5.883750 86.328827
Sr 3.909190 5.883750 94.175629
Sr 3.909190 5.883750 102.022423
Sr 3.909190 5.883750 109.869232
Sr 3.909190 5.883750 117.716034
Sr 3.909190 5.883750 125.562828
Sr 3.909190 5.883750 133.409637
Sr 3.909190 5.883750 141.256439
Sr 3.909190 5.883750 149.103241
Sr 3.909190 5.883750 156.950043
Sr 3.909190 5.883750 164.796829
Sr 3.909190 5.883750 172.643631
Sr 3.909190 5.883750 180.490433
Sr 3.909190 5.883750 188.337234
Sr 3.909190 5.883750 196.184036
Sr 3.909190 5.883750 204.030823
Sr 3.909190 5.883750 211.877640
Sr 3.909190 5.883750 219.724442
Sr 3.909190 5.883750 227.571228
Sr 3.909190 5.883750 235.418045
Sr 3.909190 5.883750 243.264832
Sr 3.909190 5.883750 251.111633
Sr 3.909190 5.883750 258.958435
Sr 3.909190 5.883750 266.805237
Sr 3.909190 5.883750 274.652039
Sr 3.909190 5.883750 282.498840
Sr 3.909190 5.883750 290.345642
Sr 3.909190 5.883750 298.192444
Sr 3.909190 5.883750 306.039215
Sr 3.909190 5.883750 313.886047
Sr 3.909190 5.883750 321.732819
Sr 3.909190 5.883750 329.579620
Sr 3.909190 5.883750 337.426453
Sr 3.909190 5.883750 345.273224
Sr 3.909190 5.883750 353.120026
Sr 3.909190 5.883750 360.966827
Sr 3.909190 5.883750 368.813629
Sr 3.909190 5.883750 376.660431
Sr 3.909190 5.883750 384.507233
Sr 3.903697 5.883750 3.942886
Sr 3.903697 5.883750 11.789686
Sr 3.903697 5.883750 19.636486
Sr 3.903697 5.883750 27.483286
Sr 3.903697 5.883750 35.330086
Sr 3.903697 5.883750 43.176884
Sr 3.903697 5.883750 51.023682
Sr 3.903697 5.883750 58.870487
Sr 3.903697 5.883750 66.717285
Sr 3.903697 5.883750 74.564095
Sr 3.903697 5.883750 82.410889
Sr 3.903697 5.883750 90.257690
Sr 3.903697 5.883750 98.104492
Sr 3.903697 5.883750 105.951294
Sr 3.903697 5.883750 113.798088
Sr 3.903697 5.883750 121.644890
Sr 3.903697 5.883750 129.491684
Sr 3.903697 5.883750 137.338486
Sr 3.903697 5.883750 145.185287
Sr 3.903697 5.883750 153.032074
Sr 3.903697 5.883750 160.878876
Sr 3.903697 5.883750 168.725693
Sr 3.903697 5.883750 176.572479
Sr 3.903697 5.883750 184.419281
Sr 3.903697 5.883750 192.266083
Sr 3.903697 5.883750 200.112885
Sr 3.903697 5.883750 207.959671
Sr 3.903697 5.883750 215.806488
Sr 3.903697 5.883750 223.653275
Sr 3.903697 5.883750 231.500076
Sr 3.903697 5.883750 239.346893
Sr 3.903697 5.883750 247.193680
Sr 3.903697 5.883750 255.040466
Sr 3.903697 5.883750 262.887299
Sr 3.903697 5.883750 270.734100
Sr 3.903697 5.883750 278.580902
Sr 3.903697 5.883750 286.427704
Sr 3.903697 5.883750 294.274506
Sr 3.903697 5.883750 302.121277
Sr 3.903697 5.883750 309.968109
Sr 3.903697 5.883750 317.814911
Sr 3.903697 5.883750 325.661682
Sr 3.903697 5.883750 333.508514
Sr 3.903697 5.883750 341.355286
Sr 3.903697 5.883750 349.202087
Sr 3.903697 5.883750 357.048920
Sr 3.903697 5.883750 364.895691
Sr 3.903697 5.883750 372.742493
Sr 3.903697 5.883750 380.589294
Sr 3.903697 5.883750 388.436096
Sr 0.014124 1.961250 11.730014
Sr 0.014124 1.961250 19.576813
Sr 0.014124 1.961250 27.423613
Sr 0.014124 1.961250 35.270412
Sr 0.014124 1.961250 43.117214
Sr 0.014124 1.961250 50.964012
Sr 0.014124 1.961250 58.810814
Sr 0.014124 1.961250 66.657616
Sr 0.014124 1.961250 74.504417
Sr 0.014124 1.961250 82.351219
Sr 0.014124 1.961250 90.198013
Sr 0.014124 1.961250 98.044815
Sr 0.014124 1.961250 105.891609
Sr 0.014124 1.961250 113.738419
Sr 0.014124 1.961250 121.585220
Sr 0.014124 1.961250 129.432007
Sr 0.014124 1.961250 137.278824
Sr 0.014124 1.961250 145.125626
Sr 0.014124 1.961250 152.972427
Sr 0.014124 1.961250 160.819229
Sr 0.014124 1.961250 168.666016
Sr 0.014124 1.961250 176.512817
Sr 0.014124 1.961250 184.359619
Sr 0.014124 1.961250 192.206421
Sr 0.014124 1.961250 200.053223
Sr 0.014124 1.961250 207.900009
Sr 0.014124 1.961250 215.746826
Sr 0.014124 1.961250 223.593628
Sr 0.014124 1.961250 231.440414
Sr 0.014124 1.961250 239.287231
Sr 0.014124 1.961250 247.134018
Sr 0.014124 1.961250 254.980820
Sr 0.014124 1.961250 262.827606
Sr 0.014124 1.961250 270.674408
Sr 0.014124 1.961250 278.521210
Sr 0.014124 1.961250 286.368011
Sr 0.014124 1.961250 294.214813
Sr 0.014124 1.961250 302.061615
Sr 0.014124 1.961250 309.908386
Sr 0.014124 1.961250 317.755219
Sr 0.014124 1.961250 325.601990
Sr 0.014124 1.961250 333.448792
Sr 0.014124 1.961250 341.295624
Sr 0.014124 1.961250 349.142395
Sr 0.014124 1.961250 356.989197
Sr 0.014124 1.961250 364.835999
Sr 0.014124 1.961250 372.682800
Sr 0.014124 1.961250 380.529602
Sr 0.014124 1.961250 388.376404
Sr 0.014124 1.961250 396.223206
