1280
new structure
O 1.840819 1.961250 5.784902
O 1.840819 1.961250 13.619146
O 1.840819 1.961250 21.453392
O 1.840819 1.961250 29.287638
O 1.840819 1.961250 37.172100
O 1.840819 1.961250 45.006348
O 1.840819 1.961250 52.840591
O 1.840819 1.961250 60.674835
O 1.840819 1.961250 68.559311
O 1.840819 1.961250 76.393555
O 1.840819 1.961250 84.227798
O 1.840819 1.961250 92.062042
O 1.840819 1.961250 99.946503
O 1.840819 1.961250 107.780746
O 1.840819 1.961250 115.614990
O 1.840819 1.961250 123.449234
O 1.840819 1.961250 131.333710
O 1.840819 1.961250 139.167953
O 1.840819 1.961250 147.002197
O 1.840819 1.961250 154.836441
O 1.840819 1.961250 162.720901
O 1.840819 1.961250 170.555145
O 1.840819 1.961250 178.389389
O 1.840819 1.961250 186.223633
O 1.840819 1.961250 194.108109
O 1.840819 1.961250 201.942352
O 1.840819 1.961250 209.776596
O 1.840819 1.961250 217.610840
O 1.840819 1.961250 225.495300
O 1.840819 1.961250 233.329544
O 1.840819 1.961250 241.163788
O 1.840819 1.961250 248.998032
O 1.840819 1.961250 256.882477
O 1.840819 1.961250 264.716736
O 1.840819 1.961250 272.550995
O 1.840819 1.961250 280.385223
O 1.840819 1.961250 288.269684
O 1.840819 1.961250 296.103943
O 1.840819 1.961250 303.938202
O 1.840819 1.961250 311.772430
O 1.840819 1.961250 319.656891
O 1.840819 1.961250 327.491150
O 1.840819 1.961250 335.325409
O 1.840819 1.961250 343.159637
O 1.840819 1.961250 351.044098
O 1.840819 1.961250 358.878357
O 1.840819 1.961250 366.712616
O 1.840819 1.961250 374.546844
O 1.840819 1.961250 382.431305
O 1.840819 1.961250 390.265533
O 1.840819 1.961250 398.099792
O 1.840819 1.961250 405.934021
O 1.840819 1.961250 413.818481
O 1.840819 1.961250 421.652740
O 1.840819 1.961250 429.487000
O 1.840819 1.961250 437.321228
O 1.840819 1.961250 445.205688
O 1.840819 1.961250 453.039948
O 1.840819 1.961250 460.874207
O 1.840819 1.961250 468.708435
O 1.840819 1.961250 476.592896
O 1.840819 1.961250 484.427155
O 1.840819 1.961250 492.261414
O 1.840819 1.961250 500.095642
O 1.854158 5.883750 9.688773
O 1.854158 5.883750 17.523018
O 1.854158 5.883750 25.357264
O 1.854158 5.883750 33.191509
O 1.854158 5.883750 41.075970
O 1.854158 5.883750 48.910217
O 1.854158 5.883750 56.744461
O 1.854158 5.883750 64.578705
O 1.854158 5.883750 72.463181
O 1.854158 5.883750 80.297424
O 1.854158 5.883750 88.131668
O 1.854158 5.883750 95.965919
O 1.854158 5.883750 103.850380
O 1.854158 5.883750 111.684624
O 1.854158 5.883750 119.518867
O 1.854158 5.883750 127.353119
O 1.854158 5.883750 135.237564
O 1.854158 5.883750 143.071823
O 1.854158 5.883750 150.906067
O 1.854158 5.883750 158.740311
O 1.854158 5.883750 166.624756
O 1.854158 5.883750 174.459015
O 1.854158 5.883750 182.293259
O 1.854158 5.883750 190.127502
O 1.854158 5.883750 198.011963
O 1.854158 5.883750 205.846222
O 1.854158 5.883750 213.680466
O 1.854158 5.883750 221.514709
O 1.854158 5.883750 229.399155
O 1.854158 5.883750 237.233414
O 1.854158 5.883750 245.067657
O 1.854158 5.883750 252.901901
O 1.854158 5.883750 260.786377
O 1.854158 5.883750 268.620605
O 1.854158 5.883750 276.454865
O 1.854158 5.883750 284.289093
O 1.854158 5.883750 292.173584
O 1.854158 5.883750 300.007812
O 1.854158 5.883750 307.842072
O 1.854158 5.883750 315.676300
O 1.854158 5.883750 323.560791
O 1.854158 5.883750 331.395020
O 1.854158 5.883750 339.229279
O 1.854158 5.883750 347.063507
O 1.854158 5.883750 354.947998
O 1.854158 5.883750 362.782227
O 1.854158 5.883750 370.616486
O 1.854158 5.883750 378.450714
O 1.854158 5.883750 386.335175
O 1.854158 5.883750 394.169403
O 1.854158 5.883750 402.003662
O 1.854158 5.883750 409.837891
O 1.854158 5.883750 417.722382
O 1.854158 5.883750 425.556610
O 1.854158 5.883750 433.390869
O 1.854158 5.883750 441.225098
O 1.854158 5.883750 449.109589
O 1.854158 5.883750 456.943817
O 1.854158 5.883750 464.778076
O 1.854158 5.883750 472.612305
O 1.854158 5.883750 480.496796
O 1.854158 5.883750 488.331024
O 1.854158 5.883750 496.165283
O 1.854158 5.883750 503.999512
O 2.082495 5.883750 5.996807
O 2.082495 5.883750 13.831052
O 2.082495 5.883750 21.665298
O 2.082495 5.883750 29.499542
O 2.082495 5.883750 37.384007
O 2.082495 5.883750 45.218250
O 2.082495 5.883750 53.052494
O 2.082495 5.883750 60.886742
O 2.082495 5.883750 68.771210
O 2.082495 5.883750 76.605453
O 2.082495 5.883750 84.439697
O 2.082495 5.883750 92.273941
O 2.082495 5.883750 100.158409
O 2.082495 5.883750 107.992653
O 2.082495 5.883750 115.826897
O 2.082495 5.883750 123.661140
O 2.082495 5.883750 131.545609
O 2.082495 5.883750 139.379868
O 2.082495 5.883750 147.214111
O 2.082495 5.883750 155.048355
O 2.082495 5.883750 162.932816
O 2.082495 5.883750 170.767059
O 2.082495 5.883750 178.601303
O 2.082495 5.883750 186.435547
O 2.082495 5.883750 194.320023
O 2.082495 5.883750 202.154266
O 2.082495 5.883750 209.988510
O 2.082495 5.883750 217.822754
O 2.082495 5.883750 225.707214
O 2.082495 5.883750 233.541458
O 2.082495 5.883750 241.375702
O 2.082495 5.883750 249.209946
O 2.082495 5.883750 257.094421
O 2.082495 5.883750 264.928619
O 2.082495 5.883750 272.762878
O 2.082495 5.883750 280.597137
O 2.082495 5.883750 288.481598
O 2.082495 5.883750 296.315826
O 2.082495 5.883750 304.150085
O 2.082495 5.883750 311.984344
O 2.082495 5.883750 319.868805
O 2.082495 5.883750 327.703033
O 2.082495 5.883750 335.537292
O 2.082495 5.883750 343.371552
O 2.082495 5.883750 351.256012
O 2.082495 5.883750 359.090240
O 2.082495 5.883750 366.924500
O 2.082495 5.883750 374.758728
O 2.082495 5.883750 382.643188
O 2.082495 5.883750 390.477417
O 2.082495 5.883750 398.311676
O 2.082495 5.883750 406.145935
O 2.082495 5.883750 414.030396
O 2.082495 5.883750 421.864624
O 2.082495 5.883750 429.698883
O 2.082495 5.883750 437.533142
O 2.082495 5.883750 445.417603
O 2.082495 5.883750 453.251831
O 2.082495 5.883750 461.086090
O 2.082495 5.883750 468.920349
O 2.082495 5.883750 476.804810
O 2.082495 5.883750 484.639038
O 2.082495 5.883750 492.473297
O 2.082495 5.883750 500.307526
O 2.069156 1.961250 2.092935
O 2.069156 1.961250 9.927179
O 2.069156 1.961250 17.761425
O 2.069156 1.961250 25.595669
O 2.069156 1.961250 33.480137
O 2.069156 1.961250 41.314381
O 2.069156 1.961250 49.148624
O 2.069156 1.961250 56.982872
O 2.069156 1.961250 64.867332
O 2.069156 1.961250 72.701584
O 2.069156 1.961250 80.535828
O 2.069156 1.961250 88.370071
O 2.069156 1.961250 96.254532
O 2.069156 1.961250 104.088783
O 2.069156 1.961250 111.923027
O 2.069156 1.961250 119.757271
O 2.069156 1.961250 127.641731
O 2.069156 1.961250 135.475983
O 2.069156 1.961250 143.310226
O 2.069156 1.961250 151.144485
O 2.069156 1.961250 159.028931
O 2.069156 1.961250 166.863174
O 2.069156 1.961250 174.697418
O 2.069156 1.961250 182.531677
O 2.069156 1.961250 190.416138
O 2.069156 1.961250 198.250381
O 2.069156 1.961250 206.084625
O 2.069156 1.961250 213.918884
O 2.069156 1.961250 221.803329
O 2.069156 1.961250 229.637573
O 2.069156 1.961250 237.471817
O 2.069156 1.961250 245.306076
O 2.069156 1.961250 253.190552
O 2.069156 1.961250 261.024750
O 2.069156 1.961250 268.859009
O 2.069156 1.961250 276.693237
O 2.069156 1.961250 284.577728
O 2.069156 1.961250 292.411957
O 2.069156 1.961250 300.246216
O 2.069156 1.961250 308.080444
O 2.069156 1.961250 315.964935
O 2.069156 1.961250 323.799164
O 2.069156 1.961250 331.633423
O 2.069156 1.961250 339.467651
O 2.069156 1.961250 347.352142
O 2.069156 1.961250 355.186371
O 2.069156 1.961250 363.020630
O 2.069156 1.961250 370.854858
O 2.069156 1.961250 378.739319
O 2.069156 1.961250 386.573547
O 2.069156 1.961250 394.407806
O 2.069156 1.961250 402.242035
O 2.069156 1.961250 410.126526
O 2.069156 1.961250 417.960754
O 2.069156 1.961250 425.795013
O 2.069156 1.961250 433.629242
O 2.069156 1.961250 441.513733
O 2.069156 1.961250 449.347961
O 2.069156 1.961250 457.182220
O 2.069156 1.961250 465.016449
O 2.069156 1.961250 472.900940
O 2.069156 1.961250 480.735168
O 2.069156 1.961250 488.569427
O 2.069156 1.961250 496.403656
O 2.075825 0.114537 7.811335
O 2.075825 0.114537 15.695799
O 2.075825 0.114537 23.530045
O 2.075825 0.114537 31.364290
O 2.075825 0.114537 39.198536
O 2.075825 0.114537 47.082996
O 2.075825 0.114537 54.917244
O 2.075825 0.114537 62.751488
O 2.075825 0.114537 70.585732
O 2.075825 0.114537 78.470200
O 2.075825 0.114537 86.304443
O 2.075825 0.114537 94.138687
O 2.075825 0.114537 101.972931
O 2.075825 0.114537 109.857399
O 2.075825 0.114537 117.691643
O 2.075825 0.114537 125.525887
O 2.075825 0.114537 133.360138
O 2.075825 0.114537 141.244598
O 2.075825 0.114537 149.078842
O 2.075825 0.114537 156.913101
O 2.075825 0.114537 164.747345
O 2.075825 0.114537 172.631805
O 2.075825 0.114537 180.466049
O 2.075825 0.114537 188.300293
O 2.075825 0.114537 196.134537
O 2.075825 0.114537 204.018997
O 2.075825 0.114537 211.853241
O 2.075825 0.114537 219.687500
O 2.075825 0.114537 227.521744
O 2.075825 0.114537 235.406204
O 2.075825 0.114537 243.240448
O 2.075825 0.114537 251.074692
O 2.075825 0.114537 258.908936
O 2.075825 0.114537 266.793396
O 2.075825 0.114537 274.627655
O 2.075825 0.114537 282.461884
O 2.075825 0.114537 290.296112
O 2.075825 0.114537 298.180573
O 2.075825 0.114537 306.014832
O 2.075825 0.114537 313.849060
O 2.075825 0.114537 321.683319
O 2.075825 0.114537 329.567780
O 2.075825 0.114537 337.402039
O 2.075825 0.114537 345.236267
O 2.075825 0.114537 353.070526
O 2.075825 0.114537 360.954987
O 2.075825 0.114537 368.789246
O 2.075825 0.114537 376.623474
O 2.075825 0.114537 384.457733
O 2.075825 0.114537 392.342194
O 2.075825 0.114537 400.176453
O 2.075825 0.114537 408.010681
O 2.075825 0.114537 415.844910
O 2.075825 0.114537 423.729370
O 2.075825 0.114537 431.563629
O 2.075825 0.114537 439.397858
O 2.075825 0.114537 447.232117
O 2.075825 0.114537 455.116577
O 2.075825 0.114537 462.950836
O 2.075825 0.114537 470.785065
O 2.075825 0.114537 478.619324
O 2.075825 0.114537 486.503784
O 2.075825 0.114537 494.338043
O 2.075825 0.114537 502.172272
O 0.000392 7.730463 5.955854
O 0.000392 7.730463 13.840318
O 0.000392 7.730463 21.674564
O 0.000392 7.730463 29.508808
O 0.000392 7.730463 37.343056
O 0.000392 7.730463 45.227520
O 0.000392 7.730463 53.061764
O 0.000392 7.730463 60.896008
O 0.000392 7.730463 68.730255
O 0.000392 7.730463 76.614723
O 0.000392 7.730463 84.448967
O 0.000392 7.730463 92.283211
O 0.000392 7.730463 100.117455
O 0.000392 7.730463 108.001923
O 0.000392 7.730463 115.836166
O 0.000392 7.730463 123.670410
O 0.000392 7.730463 131.504654
O 0.000392 7.730463 139.389114
O 0.000392 7.730463 147.223358
O 0.000392 7.730463 155.057602
O 0.000392 7.730463 162.891846
O 0.000392 7.730463 170.776321
O 0.000392 7.730463 178.610565
O 0.000392 7.730463 186.444809
O 0.000392 7.730463 194.279037
O 0.000392 7.730463 202.163513
O 0.000392 7.730463 209.997757
O 0.000392 7.730463 217.832001
O 0.000392 7.730463 225.666245
O 0.000392 7.730463 233.550720
O 0.000392 7.730463 241.384964
O 0.000392 7.730463 249.219208
O 0.000392 7.730463 257.053436
O 0.000392 7.730463 264.937927
O 0.000392 7.730463 272.772156
O 0.000392 7.730463 280.606415
O 0.000392 7.730463 288.440643
O 0.000392 7.730463 296.325104
O 0.000392 7.730463 304.159332
O 0.000392 7.730463 311.993591
O 0.000392 7.730463 319.827850
O 0.000392 7.730463 327.712311
O 0.000392 7.730463 335.546539
O 0.000392 7.730463 343.380798
O 0.000392 7.730463 351.215057
O 0.000392 7.730463 359.099518
O 0.000392 7.730463 366.933746
O 0.000392 7.730463 374.768005
O 0.000392 7.730463 382.602264
O 0.000392 7.730463 390.486725
O 0.000392 7.730463 398.320953
O 0.000392 7.730463 406.155212
O 0.000392 7.730463 413.989441
O 0.000392 7.730463 421.873901
O 0.000392 7.730463 429.708130
O 0.000392 7.730463 437.542389
O 0.000392 7.730463 445.376648
O 0.000392 7.730463 453.261108
O 0.000392 7.730463 461.095337
O 0.000392 7.730463 468.929596
O 0.000392 7.730463 476.763855
O 0.000392 7.730463 484.648315
O 0.000392 7.730463 492.482544
O 0.000392 7.730463 500.316803
O 1.847489 4.037037 3.920154
O 1.847489 4.037037 11.754399
O 1.847489 4.037037 19.588644
O 1.847489 4.037037 27.473106
O 1.847489 4.037037 35.307354
O 1.847489 4.037037 43.141598
O 1.847489 4.037037 50.975845
O 1.847489 4.037037 58.860306
O 1.847489 4.037037 66.694557
O 1.847489 4.037037 74.528801
O 1.847489 4.037037 82.363045
O 1.847489 4.037037 90.247513
O 1.847489 4.037037 98.081757
O 1.847489 4.037037 105.916000
O 1.847489 4.037037 113.750244
O 1.847489 4.037037 121.634712
O 1.847489 4.037037 129.468948
O 1.847489 4.037037 137.303207
O 1.847489 4.037037 145.137451
O 1.847489 4.037037 153.021912
O 1.847489 4.037037 160.856155
O 1.847489 4.037037 168.690414
O 1.847489 4.037037 176.524658
O 1.847489 4.037037 184.409119
O 1.847489 4.037037 192.243362
O 1.847489 4.037037 200.077606
O 1.847489 4.037037 207.911850
O 1.847489 4.037037 215.796310
O 1.847489 4.037037 223.630554
O 1.847489 4.037037 231.464813
O 1.847489 4.037037 239.299057
O 1.847489 4.037037 247.183517
O 1.847489 4.037037 255.017761
O 1.847489 4.037037 262.851990
O 1.847489 4.037037 270.686249
O 1.847489 4.037037 278.570709
O 1.847489 4.037037 286.404968
O 1.847489 4.037037 294.239197
O 1.847489 4.037037 302.073456
O 1.847489 4.037037 309.957916
O 1.847489 4.037037 317.792175
O 1.847489 4.037037 325.626404
O 1.847489 4.037037 333.460663
O 1.847489 4.037037 341.345123
O 1.847489 4.037037 349.179352
O 1.847489 4.037037 357.013580
O 1.847489 4.037037 364.847839
O 1.847489 4.037037 372.732300
O 1.847489 4.037037 380.566559
O 1.847489 4.037037 388.400787
O 1.847489 4.037037 396.235046
O 1.847489 4.037037 404.119507
O 1.847489 4.037037 411.953766
O 1.847489 4.037037 419.787994
O 1.847489 4.037037 427.622253
O 1.847489 4.037037 435.506714
O 1.847489 4.037037 443.340973
O 1.847489 4.037037 451.175201
O 1.847489 4.037037 459.009460
O 1.847489 4.037037 466.893921
O 1.847489 4.037037 474.728149
O 1.847489 4.037037 482.562378
O 1.847489 4.037037 490.396637
O 1.847489 4.037037 498.281097
O 3.922922 0.114537 5.775635
O 3.922922 0.114537 13.609880
O 3.922922 0.114537 21.444124
O 3.922922 0.114537 29.328588
O 3.922922 0.114537 37.162834
O 3.922922 0.114537 44.997078
O 3.922922 0.114537 52.831322
O 3.922922 0.114537 60.715786
O 3.922922 0.114537 68.550041
O 3.922922 0.114537 76.384285
O 3.922922 0.114537 84.218529
O 3.922922 0.114537 92.102997
O 3.922922 0.114537 99.937241
O 3.922922 0.114537 107.771484
O 3.922922 0.114537 115.605728
O 3.922922 0.114537 123.490196
O 3.922922 0.114537 131.324432
O 3.922922 0.114537 139.158676
O 3.922922 0.114537 146.992920
O 3.922922 0.114537 154.877396
O 3.922922 0.114537 162.711639
O 3.922922 0.114537 170.545883
O 3.922922 0.114537 178.380127
O 3.922922 0.114537 186.264603
O 3.922922 0.114537 194.098831
O 3.922922 0.114537 201.933075
O 3.922922 0.114537 209.767319
O 3.922922 0.114537 217.651794
O 3.922922 0.114537 225.486038
O 3.922922 0.114537 233.320282
O 3.922922 0.114537 241.154526
O 3.922922 0.114537 249.039001
O 3.922922 0.114537 256.873230
O 3.922922 0.114537 264.707489
O 3.922922 0.114537 272.541718
O 3.922922 0.114537 280.426178
O 3.922922 0.114537 288.260437
O 3.922922 0.114537 296.094696
O 3.922922 0.114537 303.928925
O 3.922922 0.114537 311.813385
O 3.922922 0.114537 319.647644
O 3.922922 0.114537 327.481903
O 3.922922 0.114537 335.316132
O 3.922922 0.114537 343.200592
O 3.922922 0.114537 351.034821
O 3.922922 0.114537 358.869080
O 3.922922 0.114537 366.703308
O 3.922922 0.114537 374.587769
O 3.922922 0.114537 382.422028
O 3.922922 0.114537 390.256287
O 3.922922 0.114537 398.090515
O 3.922922 0.114537 405.974976
O 3.922922 0.114537 413.809235
O 3.922922 0.114537 421.643494
O 3.922922 0.114537 429.477722
O 3.922922 0.114537 437.362183
O 3.922922 0.114537 445.196442
O 3.922922 0.114537 453.030701
O 3.922922 0.114537 460.864929
O 3.922922 0.114537 468.749390
O 3.922922 0.114537 476.583618
O 3.922922 0.114537 484.417877
O 3.922922 0.114537 492.252106
O 3.922922 0.114537 500.136566
O 3.922922 3.807963 5.775635
O 3.922922 3.807963 13.609880
O 3.922922 3.807963 21.444124
O 3.922922 3.807963 29.328588
O 3.922922 3.807963 37.162834
O 3.922922 3.807963 44.997078
O 3.922922 3.807963 52.831322
O 3.922922 3.807963 60.715786
O 3.922922 3.807963 68.550041
O 3.922922 3.807963 76.384285
O 3.922922 3.807963 84.218529
O 3.922922 3.807963 92.102997
O 3.922922 3.807963 99.937241
O 3.922922 3.807963 107.771484
O 3.922922 3.807963 115.605728
O 3.922922 3.807963 123.490196
O 3.922922 3.807963 131.324432
O 3.922922 3.807963 139.158676
O 3.922922 3.807963 146.992920
O 3.922922 3.807963 154.877396
O 3.922922 3.807963 162.711639
O 3.922922 3.807963 170.545883
O 3.922922 3.807963 178.380127
O 3.922922 3.807963 186.264603
O 3.922922 3.807963 194.098831
O 3.922922 3.807963 201.933075
O 3.922922 3.807963 209.767319
O 3.922922 3.807963 217.651794
O 3.922922 3.807963 225.486038
O 3.922922 3.807963 233.320282
O 3.922922 3.807963 241.154526
O 3.922922 3.807963 249.039001
O 3.922922 3.807963 256.873230
O 3.922922 3.807963 264.707489
O 3.922922 3.807963 272.541718
O 3.922922 3.807963 280.426178
O 3.922922 3.807963 288.260437
O 3.922922 3.807963 296.094696
O 3.922922 3.807963 303.928925
O 3.922922 3.807963 311.813385
O 3.922922 3.807963 319.647644
O 3.922922 3.807963 327.481903
O 3.922922 3.807963 335.316132
O 3.922922 3.807963 343.200592
O 3.922922 3.807963 351.034821
O 3.922922 3.807963 358.869080
O 3.922922 3.807963 366.703308
O 3.922922 3.807963 374.587769
O 3.922922 3.807963 382.422028
O 3.922922 3.807963 390.256287
O 3.922922 3.807963 398.090515
O 3.922922 3.807963 405.974976
O 3.922922 3.807963 413.809235
O 3.922922 3.807963 421.643494
O 3.922922 3.807963 429.477722
O 3.922922 3.807963 437.362183
O 3.922922 3.807963 445.196442
O 3.922922 3.807963 453.030701
O 3.922922 3.807963 460.864929
O 3.922922 3.807963 468.749390
O 3.922922 3.807963 476.583618
O 3.922922 3.807963 484.417877
O 3.922922 3.807963 492.252106
O 3.922922 3.807963 500.136566
O 0.000392 4.037037 5.955854
O 0.000392 4.037037 13.840318
O 0.000392 4.037037 21.674564
O 0.000392 4.037037 29.508808
O 0.000392 4.037037 37.343056
O 0.000392 4.037037 45.227520
O 0.000392 4.037037 53.061764
O 0.000392 4.037037 60.896008
O 0.000392 4.037037 68.730255
O 0.000392 4.037037 76.614723
O 0.000392 4.037037 84.448967
O 0.000392 4.037037 92.283211
O 0.000392 4.037037 100.117455
O 0.000392 4.037037 108.001923
O 0.000392 4.037037 115.836166
O 0.000392 4.037037 123.670410
O 0.000392 4.037037 131.504654
O 0.000392 4.037037 139.389114
O 0.000392 4.037037 147.223358
O 0.000392 4.037037 155.057602
O 0.000392 4.037037 162.891846
O 0.000392 4.037037 170.776321
O 0.000392 4.037037 178.610565
O 0.000392 4.037037 186.444809
O 0.000392 4.037037 194.279037
O 0.000392 4.037037 202.163513
O 0.000392 4.037037 209.997757
O 0.000392 4.037037 217.832001
O 0.000392 4.037037 225.666245
O 0.000392 4.037037 233.550720
O 0.000392 4.037037 241.384964
O 0.000392 4.037037 249.219208
O 0.000392 4.037037 257.053436
O 0.000392 4.037037 264.937927
O 0.000392 4.037037 272.772156
O 0.000392 4.037037 280.606415
O 0.000392 4.037037 288.440643
O 0.000392 4.037037 296.325104
O 0.000392 4.037037 304.159332
O 0.000392 4.037037 311.993591
O 0.000392 4.037037 319.827850
O 0.000392 4.037037 327.712311
O 0.000392 4.037037 335.546539
O 0.000392 4.037037 343.380798
O 0.000392 4.037037 351.215057
O 0.000392 4.037037 359.099518
O 0.000392 4.037037 366.933746
O 0.000392 4.037037 374.768005
O 0.000392 4.037037 382.602264
O 0.000392 4.037037 390.486725
O 0.000392 4.037037 398.320953
O 0.000392 4.037037 406.155212
O 0.000392 4.037037 413.989441
O 0.000392 4.037037 421.873901
O 0.000392 4.037037 429.708130
O 0.000392 4.037037 437.542389
O 0.000392 4.037037 445.376648
O 0.000392 4.037037 453.261108
O 0.000392 4.037037 461.095337
O 0.000392 4.037037 468.929596
O 0.000392 4.037037 476.763855
O 0.000392 4.037037 484.648315
O 0.000392 4.037037 492.482544
O 0.000392 4.037037 500.316803
O 1.847489 7.730463 3.920154
O 1.847489 7.730463 11.754399
O 1.847489 7.730463 19.588644
O 1.847489 7.730463 27.473106
O 1.847489 7.730463 35.307354
O 1.847489 7.730463 43.141598
O 1.847489 7.730463 50.975845
O 1.847489 7.730463 58.860306
O 1.847489 7.730463 66.694557
O 1.847489 7.730463 74.528801
O 1.847489 7.730463 82.363045
O 1.847489 7.730463 90.247513
O 1.847489 7.730463 98.081757
O 1.847489 7.730463 105.916000
O 1.847489 7.730463 113.750244
O 1.847489 7.730463 121.634712
O 1.847489 7.730463 129.468948
O 1.847489 7.730463 137.303207
O 1.847489 7.730463 145.137451
O 1.847489 7.730463 153.021912
O 1.847489 7.730463 160.856155
O 1.847489 7.730463 168.690414
O 1.847489 7.730463 176.524658
O 1.847489 7.730463 184.409119
O 1.847489 7.730463 192.243362
O 1.847489 7.730463 200.077606
O 1.847489 7.730463 207.911850
O 1.847489 7.730463 215.796310
O 1.847489 7.730463 223.630554
O 1.847489 7.730463 231.464813
O 1.847489 7.730463 239.299057
O 1.847489 7.730463 247.183517
O 1.847489 7.730463 255.017761
O 1.847489 7.730463 262.851990
O 1.847489 7.730463 270.686249
O 1.847489 7.730463 278.570709
O 1.847489 7.730463 286.404968
O 1.847489 7.730463 294.239197
O 1.847489 7.730463 302.073456
O 1.847489 7.730463 309.957916
O 1.847489 7.730463 317.792175
O 1.847489 7.730463 325.626404
O 1.847489 7.730463 333.460663
O 1.847489 7.730463 341.345123
O 1.847489 7.730463 349.179352
O 1.847489 7.730463 357.013580
O 1.847489 7.730463 364.847839
O 1.847489 7.730463 372.732300
O 1.847489 7.730463 380.566559
O 1.847489 7.730463 388.400787
O 1.847489 7.730463 396.235046
O 1.847489 7.730463 404.119507
O 1.847489 7.730463 411.953766
O 1.847489 7.730463 419.787994
O 1.847489 7.730463 427.622253
O 1.847489 7.730463 435.506714
O 1.847489 7.730463 443.340973
O 1.847489 7.730463 451.175201
O 1.847489 7.730463 459.009460
O 1.847489 7.730463 466.893921
O 1.847489 7.730463 474.728149
O 1.847489 7.730463 482.562378
O 1.847489 7.730463 490.396637
O 1.847489 7.730463 498.281097
O 2.075825 3.807963 7.811335
O 2.075825 3.807963 15.695799
O 2.075825 3.807963 23.530045
O 2.075825 3.807963 31.364290
O 2.075825 3.807963 39.198536
O 2.075825 3.807963 47.082996
O 2.075825 3.807963 54.917244
O 2.075825 3.807963 62.751488
O 2.075825 3.807963 70.585732
O 2.075825 3.807963 78.470200
O 2.075825 3.807963 86.304443
O 2.075825 3.807963 94.138687
O 2.075825 3.807963 101.972931
O 2.075825 3.807963 109.857399
O 2.075825 3.807963 117.691643
O 2.075825 3.807963 125.525887
O 2.075825 3.807963 133.360138
O 2.075825 3.807963 141.244598
O 2.075825 3.807963 149.078842
O 2.075825 3.807963 156.913101
O 2.075825 3.807963 164.747345
O 2.075825 3.807963 172.631805
O 2.075825 3.807963 180.466049
O 2.075825 3.807963 188.300293
O 2.075825 3.807963 196.134537
O 2.075825 3.807963 204.018997
O 2.075825 3.807963 211.853241
O 2.075825 3.807963 219.687500
O 2.075825 3.807963 227.521744
O 2.075825 3.807963 235.406204
O 2.075825 3.807963 243.240448
O 2.075825 3.807963 251.074692
O 2.075825 3.807963 258.908936
O 2.075825 3.807963 266.793396
O 2.075825 3.807963 274.627655
O 2.075825 3.807963 282.461884
O 2.075825 3.807963 290.296112
O 2.075825 3.807963 298.180573
O 2.075825 3.807963 306.014832
O 2.075825 3.807963 313.849060
O 2.075825 3.807963 321.683319
O 2.075825 3.807963 329.567780
O 2.075825 3.807963 337.402039
O 2.075825 3.807963 345.236267
O 2.075825 3.807963 353.070526
O 2.075825 3.807963 360.954987
O 2.075825 3.807963 368.789246
O 2.075825 3.807963 376.623474
O 2.075825 3.807963 384.457733
O 2.075825 3.807963 392.342194
O 2.075825 3.807963 400.176453
O 2.075825 3.807963 408.010681
O 2.075825 3.807963 415.844910
O 2.075825 3.807963 423.729370
O 2.075825 3.807963 431.563629
O 2.075825 3.807963 439.397858
O 2.075825 3.807963 447.232117
O 2.075825 3.807963 455.116577
O 2.075825 3.807963 462.950836
O 2.075825 3.807963 470.785065
O 2.075825 3.807963 478.619324
O 2.075825 3.807963 486.503784
O 2.075825 3.807963 494.338043
O 2.075825 3.807963 502.172272
Ru 1.961657 0.000000 1.948622
Ru 1.961657 0.000000 9.782866
Ru 1.961657 0.000000 17.617111
Ru 1.961657 0.000000 25.501575
Ru 1.961657 0.000000 33.335823
Ru 1.961657 0.000000 41.170071
Ru 1.961657 0.000000 49.054531
Ru 1.961657 0.000000 56.888775
Ru 1.961657 0.000000 64.723022
Ru 1.961657 0.000000 72.557266
Ru 1.961657 0.000000 80.391518
Ru 1.961657 0.000000 88.275978
Ru 1.961657 0.000000 96.110222
Ru 1.961657 0.000000 103.944466
Ru 1.961657 0.000000 111.828926
Ru 1.961657 0.000000 119.663177
Ru 1.961657 0.000000 127.497421
Ru 1.961657 0.000000 135.331665
Ru 1.961657 0.000000 143.165909
Ru 1.961657 0.000000 151.050385
Ru 1.961657 0.000000 158.884628
Ru 1.961657 0.000000 166.718857
Ru 1.961657 0.000000 174.603333
Ru 1.961657 0.000000 182.437576
Ru 1.961657 0.000000 190.271820
Ru 1.961657 0.000000 198.106064
Ru 1.961657 0.000000 205.940308
Ru 1.961657 0.000000 213.824783
Ru 1.961657 0.000000 221.659012
Ru 1.961657 0.000000 229.493256
Ru 1.961657 0.000000 237.377731
Ru 1.961657 0.000000 245.211975
Ru 1.961657 0.000000 253.046219
Ru 1.961657 0.000000 260.880493
Ru 1.961657 0.000000 268.714722
Ru 1.961657 0.000000 276.599182
Ru 1.961657 0.000000 284.433441
Ru 1.961657 0.000000 292.267700
Ru 1.961657 0.000000 300.152161
Ru 1.961657 0.000000 307.986389
Ru 1.961657 0.000000 315.820648
Ru 1.961657 0.000000 323.654877
Ru 1.961657 0.000000 331.489105
Ru 1.961657 0.000000 339.373566
Ru 1.961657 0.000000 347.207825
Ru 1.961657 0.000000 355.042084
Ru 1.961657 0.000000 362.926544
Ru 1.961657 0.000000 370.760773
Ru 1.961657 0.000000 378.595032
Ru 1.961657 0.000000 386.429291
Ru 1.961657 0.000000 394.263519
Ru 1.961657 0.000000 402.147980
Ru 1.961657 0.000000 409.982239
Ru 1.961657 0.000000 417.816498
Ru 1.961657 0.000000 425.700958
Ru 1.961657 0.000000 433.535187
Ru 1.961657 0.000000 441.369415
Ru 1.961657 0.000000 449.203674
Ru 1.961657 0.000000 457.037903
Ru 1.961657 0.000000 464.922363
Ru 1.961657 0.000000 472.756622
Ru 1.961657 0.000000 480.590881
Ru 1.961657 0.000000 488.475342
Ru 1.961657 0.000000 496.309570
Ru 1.961657 0.000000 5.865745
Ru 1.961657 0.000000 13.699989
Ru 1.961657 0.000000 21.584454
Ru 1.961657 0.000000 29.418697
Ru 1.961657 0.000000 37.252941
Ru 1.961657 0.000000 45.087193
Ru 1.961657 0.000000 52.971653
Ru 1.961657 0.000000 60.805897
Ru 1.961657 0.000000 68.640144
Ru 1.961657 0.000000 76.474388
Ru 1.961657 0.000000 84.358856
Ru 1.961657 0.000000 92.193100
Ru 1.961657 0.000000 100.027344
Ru 1.961657 0.000000 107.861588
Ru 1.961657 0.000000 115.746056
Ru 1.961657 0.000000 123.580299
Ru 1.961657 0.000000 131.414551
Ru 1.961657 0.000000 139.248795
Ru 1.961657 0.000000 147.133255
Ru 1.961657 0.000000 154.967499
Ru 1.961657 0.000000 162.801743
Ru 1.961657 0.000000 170.635986
Ru 1.961657 0.000000 178.520447
Ru 1.961657 0.000000 186.354691
Ru 1.961657 0.000000 194.188950
Ru 1.961657 0.000000 202.023193
Ru 1.961657 0.000000 209.907654
Ru 1.961657 0.000000 217.741898
Ru 1.961657 0.000000 225.576141
Ru 1.961657 0.000000 233.410385
Ru 1.961657 0.000000 241.294846
Ru 1.961657 0.000000 249.129089
Ru 1.961657 0.000000 256.963318
Ru 1.961657 0.000000 264.797607
Ru 1.961657 0.000000 272.682068
Ru 1.961657 0.000000 280.516327
Ru 1.961657 0.000000 288.350555
Ru 1.961657 0.000000 296.184814
Ru 1.961657 0.000000 304.069275
Ru 1.961657 0.000000 311.903534
Ru 1.961657 0.000000 319.737732
Ru 1.961657 0.000000 327.571991
Ru 1.961657 0.000000 335.456451
Ru 1.961657 0.000000 343.290710
Ru 1.961657 0.000000 351.124939
Ru 1.961657 0.000000 358.959198
Ru 1.961657 0.000000 366.843658
Ru 1.961657 0.000000 374.677917
Ru 1.961657 0.000000 382.512146
Ru 1.961657 0.000000 390.346405
Ru 1.961657 0.000000 398.230865
Ru 1.961657 0.000000 406.065125
Ru 1.961657 0.000000 413.899353
Ru 1.961657 0.000000 421.733612
Ru 1.961657 0.000000 429.618073
Ru 1.961657 0.000000 437.452332
Ru 1.961657 0.000000 445.286530
Ru 1.961657 0.000000 453.120789
Ru 1.961657 0.000000 461.005249
Ru 1.961657 0.000000 468.839508
Ru 1.961657 0.000000 476.673737
Ru 1.961657 0.000000 484.507996
Ru 1.961657 0.000000 492.392456
Ru 1.961657 0.000000 500.226715
Ru 1.961657 3.922500 1.948622
Ru 1.961657 3.922500 9.782866
Ru 1.961657 3.922500 17.617111
Ru 1.961657 3.922500 25.501575
Ru 1.961657 3.922500 33.335823
Ru 1.961657 3.922500 41.170071
Ru 1.961657 3.922500 49.054531
Ru 1.961657 3.922500 56.888775
Ru 1.961657 3.922500 64.723022
Ru 1.961657 3.922500 72.557266
Ru 1.961657 3.922500 80.391518
Ru 1.961657 3.922500 88.275978
Ru 1.961657 3.922500 96.110222
Ru 1.961657 3.922500 103.944466
Ru 1.961657 3.922500 111.828926
Ru 1.961657 3.922500 119.663177
Ru 1.961657 3.922500 127.497421
Ru 1.961657 3.922500 135.331665
Ru 1.961657 3.922500 143.165909
Ru 1.961657 3.922500 151.050385
Ru 1.961657 3.922500 158.884628
Ru 1.961657 3.922500 166.718857
Ru 1.961657 3.922500 174.603333
Ru 1.961657 3.922500 182.437576
Ru 1.961657 3.922500 190.271820
Ru 1.961657 3.922500 198.106064
Ru 1.961657 3.922500 205.940308
Ru 1.961657 3.922500 213.824783
Ru 1.961657 3.922500 221.659012
Ru 1.961657 3.922500 229.493256
Ru 1.961657 3.922500 237.377731
Ru 1.961657 3.922500 245.211975
Ru 1.961657 3.922500 253.046219
Ru 1.961657 3.922500 260.880493
Ru 1.961657 3.922500 268.714722
Ru 1.961657 3.922500 276.599182
Ru 1.961657 3.922500 284.433441
Ru 1.961657 3.922500 292.267700
Ru 1.961657 3.922500 300.152161
Ru 1.961657 3.922500 307.986389
Ru 1.961657 3.922500 315.820648
Ru 1.961657 3.922500 323.654877
Ru 1.961657 3.922500 331.489105
Ru 1.961657 3.922500 339.373566
Ru 1.961657 3.922500 347.207825
Ru 1.961657 3.922500 355.042084
Ru 1.961657 3.922500 362.926544
Ru 1.961657 3.922500 370.760773
Ru 1.961657 3.922500 378.595032
Ru 1.961657 3.922500 386.429291
Ru 1.961657 3.922500 394.263519
Ru 1.961657 3.922500 402.147980
Ru 1.961657 3.922500 409.982239
Ru 1.961657 3.922500 417.816498
Ru 1.961657 3.922500 425.700958
Ru 1.961657 3.922500 433.535187
Ru 1.961657 3.922500 441.369415
Ru 1.961657 3.922500 449.203674
Ru 1.961657 3.922500 457.037903
Ru 1.961657 3.922500 464.922363
Ru 1.961657 3.922500 472.756622
Ru 1.961657 3.922500 480.590881
Ru 1.961657 3.922500 488.475342
Ru 1.961657 3.922500 496.309570
Ru 1.961657 3.922500 5.865745
Ru 1.961657 3.922500 13.699989
Ru 1.961657 3.922500 21.584454
Ru 1.961657 3.922500 29.418697
Ru 1.961657 3.922500 37.252941
Ru 1.961657 3.922500 45.087193
Ru 1.961657 3.922500 52.971653
Ru 1.961657 3.922500 60.805897
Ru 1.961657 3.922500 68.640144
Ru 1.961657 3.922500 76.474388
Ru 1.961657 3.922500 84.358856
Ru 1.961657 3.922500 92.193100
Ru 1.961657 3.922500 100.027344
Ru 1.961657 3.922500 107.861588
Ru 1.961657 3.922500 115.746056
Ru 1.961657 3.922500 123.580299
Ru 1.961657 3.922500 131.414551
Ru 1.961657 3.922500 139.248795
Ru 1.961657 3.922500 147.133255
Ru 1.961657 3.922500 154.967499
Ru 1.961657 3.922500 162.801743
Ru 1.961657 3.922500 170.635986
Ru 1.961657 3.922500 178.520447
Ru 1.961657 3.922500 186.354691
Ru 1.961657 3.922500 194.188950
Ru 1.961657 3.922500 202.023193
Ru 1.961657 3.922500 209.907654
Ru 1.961657 3.922500 217.741898
Ru 1.961657 3.922500 225.576141
Ru 1.961657 3.922500 233.410385
Ru 1.961657 3.922500 241.294846
Ru 1.961657 3.922500 249.129089
Ru 1.961657 3.922500 256.963318
Ru 1.961657 3.922500 264.797607
Ru 1.961657 3.922500 272.682068
Ru 1.961657 3.922500 280.516327
Ru 1.961657 3.922500 288.350555
Ru 1.961657 3.922500 296.184814
Ru 1.961657 3.922500 304.069275
Ru 1.961657 3.922500 311.903534
Ru 1.961657 3.922500 319.737732
Ru 1.961657 3.922500 327.571991
Ru 1.961657 3.922500 335.456451
Ru 1.961657 3.922500 343.290710
Ru 1.961657 3.922500 351.124939
Ru 1.961657 3.922500 358.959198
Ru 1.961657 3.922500 366.843658
Ru 1.961657 3.922500 374.677917
Ru 1.961657 3.922500 382.512146
Ru 1.961657 3.922500 390.346405
Ru 1.961657 3.922500 398.230865
Ru 1.961657 3.922500 406.065125
Ru 1.961657 3.922500 413.899353
Ru 1.961657 3.922500 421.733612
Ru 1.961657 3.922500 429.618073
Ru 1.961657 3.922500 437.452332
Ru 1.961657 3.922500 445.286530
Ru 1.961657 3.922500 453.120789
Ru 1.961657 3.922500 461.005249
Ru 1.961657 3.922500 468.839508
Ru 1.961657 3.922500 476.673737
Ru 1.961657 3.922500 484.507996
Ru 1.961657 3.922500 492.392456
Ru 1.961657 3.922500 500.226715
Sr 0.019617 1.961250 7.794880
Sr 0.019617 1.961250 15.629125
Sr 0.019617 1.961250 23.513590
Sr 0.019617 1.961250 31.347834
Sr 0.019617 1.961250 39.182079
Sr 0.019617 1.961250 47.016327
Sr 0.019617 1.961250 54.900787
Sr 0.019617 1.961250 62.735035
Sr 0.019617 1.961250 70.569283
Sr 0.019617 1.961250 78.403526
Sr 0.019617 1.961250 86.287994
Sr 0.019617 1.961250 94.122238
Sr 0.019617 1.961250 101.956482
Sr 0.019617 1.961250 109.790726
Sr 0.019617 1.961250 117.675194
Sr 0.019617 1.961250 125.509438
Sr 0.019617 1.961250 133.343689
Sr 0.019617 1.961250 141.177933
Sr 0.019617 1.961250 149.062393
Sr 0.019617 1.961250 156.896637
Sr 0.019617 1.961250 164.730881
Sr 0.019617 1.961250 172.565125
Sr 0.019617 1.961250 180.449585
Sr 0.019617 1.961250 188.283829
Sr 0.019617 1.961250 196.118088
Sr 0.019617 1.961250 203.952332
Sr 0.019617 1.961250 211.836792
Sr 0.019617 1.961250 219.671036
Sr 0.019617 1.961250 227.505280
Sr 0.019617 1.961250 235.339523
Sr 0.019617 1.961250 243.223984
Sr 0.019617 1.961250 251.058228
Sr 0.019617 1.961250 258.892456
Sr 0.019617 1.961250 266.726715
Sr 0.019617 1.961250 274.611176
Sr 0.019617 1.961250 282.445435
Sr 0.019617 1.961250 290.279663
Sr 0.019617 1.961250 298.113922
Sr 0.019617 1.961250 305.998383
Sr 0.019617 1.961250 313.832642
Sr 0.019617 1.961250 321.666840
Sr 0.019617 1.961250 329.501099
Sr 0.019617 1.961250 337.385559
Sr 0.019617 1.961250 345.219818
Sr 0.019617 1.961250 353.054047
Sr 0.019617 1.961250 360.888306
Sr 0.019617 1.961250 368.772766
Sr 0.019617 1.961250 376.607025
Sr 0.019617 1.961250 384.441254
Sr 0.019617 1.961250 392.275513
Sr 0.019617 1.961250 400.159973
Sr 0.019617 1.961250 407.994232
Sr 0.019617 1.961250 415.828461
Sr 0.019617 1.961250 423.662720
Sr 0.019617 1.961250 431.547180
Sr 0.019617 1.961250 439.381439
Sr 0.019617 1.961250 447.215637
Sr 0.019617 1.961250 455.049896
Sr 0.019617 1.961250 462.934357
Sr 0.019617 1.961250 470.768616
Sr 0.019617 1.961250 478.602844
Sr 0.019617 1.961250 486.437103
Sr 0.019617 1.961250 494.321564
Sr 0.019617 1.961250 502.155823
Sr 3.909190 5.883750 0.014030
Sr 3.909190 5.883750 7.848275
Sr 3.909190 5.883750 15.732740
Sr 3.909190 5.883750 23.566984
Sr 3.909190 5.883750 31.401230
Sr 3.909190 5.883750 39.235477
Sr 3.909190 5.883750 47.119938
Sr 3.909190 5.883750 54.954182
Sr 3.909190 5.883750 62.788429
Sr 3.909190 5.883750 70.622673
Sr 3.909190 5.883750 78.507133
Sr 3.909190 5.883750 86.341385
Sr 3.909190 5.883750 94.175629
Sr 3.909190 5.883750 102.009872
Sr 3.909190 5.883750 109.894333
Sr 3.909190 5.883750 117.728584
Sr 3.909190 5.883750 125.562828
Sr 3.909190 5.883750 133.397079
Sr 3.909190 5.883750 141.281555
Sr 3.909190 5.883750 149.115799
Sr 3.909190 5.883750 156.950043
Sr 3.909190 5.883750 164.784271
Sr 3.909190 5.883750 172.668747
Sr 3.909190 5.883750 180.502991
Sr 3.909190 5.883750 188.337234
Sr 3.909190 5.883750 196.171478
Sr 3.909190 5.883750 204.055954
Sr 3.909190 5.883750 211.890198
Sr 3.909190 5.883750 219.724426
Sr 3.909190 5.883750 227.558670
Sr 3.909190 5.883750 235.443146
Sr 3.909190 5.883750 243.277390
Sr 3.909190 5.883750 251.111633
Sr 3.909190 5.883750 258.945892
Sr 3.909190 5.883750 266.830353
Sr 3.909190 5.883750 274.664581
Sr 3.909190 5.883750 282.498840
Sr 3.909190 5.883750 290.333099
Sr 3.909190 5.883750 298.217560
Sr 3.909190 5.883750 306.051788
Sr 3.909190 5.883750 313.886047
Sr 3.909190 5.883750 321.720276
Sr 3.909190 5.883750 329.604736
Sr 3.909190 5.883750 337.438965
Sr 3.909190 5.883750 345.273224
Sr 3.909190 5.883750 353.107483
Sr 3.909190 5.883750 360.991943
Sr 3.909190 5.883750 368.826172
Sr 3.909190 5.883750 376.660431
Sr 3.909190 5.883750 384.494690
Sr 3.909190 5.883750 392.379150
Sr 3.909190 5.883750 400.213379
Sr 3.909190 5.883750 408.047638
Sr 3.909190 5.883750 415.881897
Sr 3.909190 5.883750 423.766357
Sr 3.909190 5.883750 431.600586
Sr 3.909190 5.883750 439.434814
Sr 3.909190 5.883750 447.269073
Sr 3.909190 5.883750 455.153534
Sr 3.909190 5.883750 462.987762
Sr 3.909190 5.883750 470.822021
Sr 3.909190 5.883750 478.656281
Sr 3.909190 5.883750 486.540741
Sr 3.909190 5.883750 494.374969
Sr 3.903697 5.883750 3.936609
Sr 3.903697 5.883750 11.770854
Sr 3.903697 5.883750 19.655317
Sr 3.903697 5.883750 27.489561
Sr 3.903697 5.883750 35.323807
Sr 3.903697 5.883750 43.158054
Sr 3.903697 5.883750 51.042515
Sr 3.903697 5.883750 58.876762
Sr 3.903697 5.883750 66.711006
Sr 3.903697 5.883750 74.545258
Sr 3.903697 5.883750 82.429726
Sr 3.903697 5.883750 90.263969
Sr 3.903697 5.883750 98.098213
Sr 3.903697 5.883750 105.932457
Sr 3.903697 5.883750 113.816925
Sr 3.903697 5.883750 121.651169
Sr 3.903697 5.883750 129.485413
Sr 3.903697 5.883750 137.319656
Sr 3.903697 5.883750 145.204117
Sr 3.903697 5.883750 153.038361
Sr 3.903697 5.883750 160.872604
Sr 3.903697 5.883750 168.706848
Sr 3.903697 5.883750 176.591309
Sr 3.903697 5.883750 184.425552
Sr 3.903697 5.883750 192.259811
Sr 3.903697 5.883750 200.094055
Sr 3.903697 5.883750 207.978516
Sr 3.903697 5.883750 215.812759
Sr 3.903697 5.883750 223.647003
Sr 3.903697 5.883750 231.481247
Sr 3.903697 5.883750 239.365707
Sr 3.903697 5.883750 247.199951
Sr 3.903697 5.883750 255.034195
Sr 3.903697 5.883750 262.868469
Sr 3.903697 5.883750 270.752930
Sr 3.903697 5.883750 278.587189
Sr 3.903697 5.883750 286.421417
Sr 3.903697 5.883750 294.255676
Sr 3.903697 5.883750 302.140137
Sr 3.903697 5.883750 309.974396
Sr 3.903697 5.883750 317.808594
Sr 3.903697 5.883750 325.642853
Sr 3.903697 5.883750 333.527313
Sr 3.903697 5.883750 341.361572
Sr 3.903697 5.883750 349.195801
Sr 3.903697 5.883750 357.030060
Sr 3.903697 5.883750 364.914520
Sr 3.903697 5.883750 372.748779
Sr 3.903697 5.883750 380.583008
Sr 3.903697 5.883750 388.417267
Sr 3.903697 5.883750 396.301727
Sr 3.903697 5.883750 404.135986
Sr 3.903697 5.883750 411.970215
Sr 3.903697 5.883750 419.804474
Sr 3.903697 5.883750 427.688934
Sr 3.903697 5.883750 435.523193
Sr 3.903697 5.883750 443.357391
Sr 3.903697 5.883750 451.191650
Sr 3.903697 5.883750 459.076111
Sr 3.903697 5.883750 466.910370
Sr 3.903697 5.883750 474.744598
Sr 3.903697 5.883750 482.578857
Sr 3.903697 5.883750 490.463318
Sr 3.903697 5.883750 498.297577
Sr 0.014124 1.961250 11.717459
Sr 0.014124 1.961250 19.551702
Sr 0.014124 1.961250 27.436167
Sr 0.014124 1.961250 35.270412
Sr 0.014124 1.961250 43.104660
Sr 0.014124 1.961250 50.938904
Sr 0.014124 1.961250 58.823364
Sr 0.014124 1.961250 66.657616
Sr 0.014124 1.961250 74.491859
Sr 0.014124 1.961250 82.326111
Sr 0.014124 1.961250 90.210571
Sr 0.014124 1.961250 98.044815
Sr 0.014124 1.961250 105.879059
Sr 0.014124 1.961250 113.713310
Sr 0.014124 1.961250 121.597771
Sr 0.014124 1.961250 129.432007
Sr 0.014124 1.961250 137.266266
Sr 0.014124 1.961250 145.100510
Sr 0.014124 1.961250 152.984985
Sr 0.014124 1.961250 160.819229
Sr 0.014124 1.961250 168.653458
Sr 0.014124 1.961250 176.487701
Sr 0.014124 1.961250 184.372177
Sr 0.014124 1.961250 192.206421
Sr 0.014124 1.961250 200.040665
Sr 0.014124 1.961250 207.874908
Sr 0.014124 1.961250 215.759384
Sr 0.014124 1.961250 223.593613
Sr 0.014124 1.961250 231.427856
Sr 0.014124 1.961250 239.262100
Sr 0.014124 1.961250 247.146576
Sr 0.014124 1.961250 254.980820
Sr 0.014124 1.961250 262.815063
Sr 0.014124 1.961250 270.649292
Sr 0.014124 1.961250 278.533752
Sr 0.014124 1.961250 286.368011
Sr 0.014124 1.961250 294.202271
Sr 0.014124 1.961250 302.036499
Sr 0.014124 1.961250 309.920959
Sr 0.014124 1.961250 317.755219
Sr 0.014124 1.961250 325.589447
Sr 0.014124 1.961250 333.423676
Sr 0.014124 1.961250 341.308136
Sr 0.014124 1.961250 349.142395
Sr 0.014124 1.961250 356.976654
Sr 0.014124 1.961250 364.810883
Sr 0.014124 1.961250 372.695343
Sr 0.014124 1.961250 380.529602
Sr 0.014124 1.961250 388.363861
Sr 0.014124 1.961250 396.198090
Sr 0.014124 1.961250 404.082550
Sr 0.014124 1.961250 411.916809
Sr 0.014124 1.961250 419.751068
Sr 0.014124 1.961250 427.585297
Sr 0.014124 1.961250 435.469757
Sr 0.014124 1.961250 443.303986
Sr 0.014124 1.961250 451.138245
Sr 0.014124 1.961250 458.972473
Sr 0.014124 1.961250 466.856934
Sr 0.014124 1.961250 474.691193
Sr 0.014124 1.961250 482.525452
Sr 0.014124 1.961250 490.359680
Sr 0.014124 1.961250 498.244141
Sr 0.014124 1.961250 506.078400
